                                  MODFLOW-2005     
      U.S. GEOLOGICAL SURVEY MODULAR FINITE-DIFFERENCE GROUND-WATER FLOW MODEL
                            VERSION 1.12.00 x/x/2015

 LIST FILE: freyberg_pcg.list
                         UNIT    2

 OPENING freyberg_pcg.dis
 FILE TYPE:DIS   UNIT   11   STATUS:OLD    
 FORMAT:FORMATTED              ACCESS:SEQUENTIAL          

 OPENING freyberg_pcg.rch
 FILE TYPE:RCH   UNIT   19   STATUS:OLD    
 FORMAT:FORMATTED              ACCESS:SEQUENTIAL          

 OPENING freyberg_pcg.bas
 FILE TYPE:BAS6   UNIT   13   STATUS:OLD    
 FORMAT:FORMATTED              ACCESS:SEQUENTIAL          

 OPENING freyberg_pcg.oc
 FILE TYPE:OC   UNIT   14   STATUS:OLD    
 FORMAT:FORMATTED              ACCESS:SEQUENTIAL          

 OPENING freyberg_pcg.hds
 FILE TYPE:DATA(BINARY)   UNIT   51   STATUS:REPLACE
 FORMAT:UNFORMATTED            ACCESS:STREAM              

 OPENING freyberg_pcg.ddn
 FILE TYPE:DATA(BINARY)   UNIT   52   STATUS:REPLACE
 FORMAT:UNFORMATTED            ACCESS:STREAM              

 OPENING freyberg_pcg.cbc
 FILE TYPE:DATA(BINARY)   UNIT   53   STATUS:REPLACE
 FORMAT:UNFORMATTED            ACCESS:STREAM              

 OPENING freyberg_pcg.riv
 FILE TYPE:RIV   UNIT   18   STATUS:OLD    
 FORMAT:FORMATTED              ACCESS:SEQUENTIAL          

 OPENING freyberg_pcg.wel
 FILE TYPE:WEL   UNIT   20   STATUS:OLD    
 FORMAT:FORMATTED              ACCESS:SEQUENTIAL          

 OPENING freyberg_pcg.pcg
 FILE TYPE:PCG   UNIT   27   STATUS:OLD    
 FORMAT:FORMATTED              ACCESS:SEQUENTIAL          

 OPENING freyberg_pcg.lpf
 FILE TYPE:LPF   UNIT   15   STATUS:OLD    
 FORMAT:FORMATTED              ACCESS:SEQUENTIAL          

 OPENING freyberg_pcg.hyd
 FILE TYPE:HYD   UNIT   36   STATUS:OLD    
 FORMAT:FORMATTED              ACCESS:SEQUENTIAL          

 OPENING freyberg_pcg.hyd.bin
 FILE TYPE:DATA(BINARY)   UNIT  536   STATUS:REPLACE
 FORMAT:UNFORMATTED            ACCESS:STREAM              

 BAS -- BASIC PACKAGE, VERSION 7, 5/2/2005 INPUT READ FROM UNIT   13

 MODFLOW was compiled using mixed precision
 Precision of REAL variables:           6
 Precision of DOUBLE PRECISION variables:          15

 DISCRETIZATION INPUT DATA READ FROM UNIT   11
 # Discretization file for MODFLOW, generated by Flopy.
 #xul:0, yul:10000, rotation:0, proj4_str:EPSG:4326 ,start_datetime:1/1/1970
    1 LAYERS        40 ROWS        20 COLUMNS
    3 STRESS PERIOD(S) IN SIMULATION
 MODEL TIME UNIT IS DAYS
 MODEL LENGTH UNIT IS METERS
  Confining bed flag for each layer:
   0



                               DELR
 READING ON UNIT   11 WITH FORMAT: (20E15.6)           



                               DELC
 READING ON UNIT   11 WITH FORMAT: (40E15.6)           

 TOP ELEVATION OF LAYER 1 =   35.0000    



             MODEL LAYER BOTTOM EL. FOR LAYER   1
 READING ON UNIT   11 WITH FORMAT: (20E15.6)           


 STRESS PERIOD     LENGTH       TIME STEPS     MULTIPLIER FOR DELT    SS FLAG
 ----------------------------------------------------------------------------
        1         1.000000          1                    1.000         SS
        2         1825.000          1                    1.000         TR
        3         1.000000          1                    1.000         SS

 COMBINED STEADY-STATE AND TRANSIENT SIMULATION




 # Basic package file for MODFLOW, generated by Flopy.                           
 THE FREE FORMAT OPTION HAS BEEN SELECTED



                     BOUNDARY ARRAY FOR LAYER   1
 READING ON UNIT   13 WITH FORMAT: (20I10)             

 AQUIFER HEAD WILL BE SET TO -2.32323E+05 AT ALL NO-FLOW NODES (IBOUND=0).



                       INITIAL HEAD FOR LAYER   1
 READING ON UNIT   13 WITH FORMAT: (20E15.6)           
 # Output control package file for MODFLOW, generated by Flopy.

 OUTPUT CONTROL IS SPECIFIED ONLY AT TIME STEPS FOR WHICH OUTPUT IS DESIRED
 COMPACT CELL-BY-CELL BUDGET FILES WILL BE WRITTEN
 AUXILIARY DATA WILL BE SAVED IN CELL-BY-CELL BUDGET FILES
 HEAD PRINT FORMAT CODE IS   0    DRAWDOWN PRINT FORMAT CODE IS   0
 HEADS WILL BE SAVED ON UNIT   51    DRAWDOWNS WILL BE SAVED ON UNIT   52

 LPF -- LAYER-PROPERTY FLOW PACKAGE, VERSION 7, 5/2/2005
         INPUT READ FROM UNIT   15
 # LPF for MODFLOW, generated by Flopy.
 CELL-BY-CELL FLOWS WILL BE SAVED ON UNIT   53
 HEAD AT CELLS THAT CONVERT TO DRY= -1.00000E+30
 No named parameters

   LAYER FLAGS:
 LAYER       LAYTYP        LAYAVG         CHANI        LAYVKA        LAYWET
 ---------------------------------------------------------------------------
    1             0             0     1.000E+00             0             0

   INTERPRETATION OF LAYER FLAGS:
                        INTERBLOCK     HORIZONTAL    DATA IN
         LAYER TYPE   TRANSMISSIVITY   ANISOTROPY   ARRAY VKA   WETTABILITY
 LAYER      (LAYTYP)      (LAYAVG)       (CHANI)      (LAYVKA)      (LAYWET)
 ---------------------------------------------------------------------------
    1      CONFINED      HARMONIC     1.000E+00    VERTICAL K  NON-WETTABLE

 WETTING CAPABILITY IS NOT ACTIVE IN ANY LAYER



              HYD. COND. ALONG ROWS FOR LAYER   1
 READING ON UNIT   15 WITH FORMAT: (20E15.6)           



                VERTICAL HYD. COND. FOR LAYER   1
 READING ON UNIT   15 WITH FORMAT: (20E15.6)           



                   SPECIFIC STORAGE FOR LAYER   1
 READING ON UNIT   15 WITH FORMAT: (20E15.6)           

 WEL -- WELL PACKAGE, VERSION 7, 5/2/2005 INPUT READ FROM UNIT   20
 # Well file for MODFLOW, generated by Flopy.
 No named parameters
 MAXIMUM OF      6 ACTIVE WELLS AT ONE TIME


     0 Well parameters

 RIV -- RIVER PACKAGE, VERSION 7, 5/2/2005 INPUT READ FROM UNIT   18
 # RIV for MODFLOW, generated by Flopy.
 No named parameters
 MAXIMUM OF     40 ACTIVE RIVER REACHES AT ONE TIME


     0 River parameters

 RCH -- RECHARGE PACKAGE, VERSION 7, 5/2/2005 INPUT READ FROM UNIT   19
 # RCH for MODFLOW, generated by Flopy.
 No named parameters
 OPTION 3 -- RECHARGE TO HIGHEST ACTIVE NODE IN EACH VERTICAL COLUMN


     0 Recharge parameters

 PCG -- CONJUGATE-GRADIENT SOLUTION PACKAGE, VERSION 7, 5/2/2005
 # PCG for MODFLOW, generated by Flopy.
 MAXIMUM OF     50 CALLS OF SOLUTION ROUTINE
 MAXIMUM OF     30 INTERNAL ITERATIONS PER CALL TO SOLUTION ROUTINE
 MATRIX PRECONDITIONING TYPE :    1



                                    SOLUTION BY THE CONJUGATE-GRADIENT METHOD
                                   -------------------------------------------
                    MAXIMUM NUMBER OF CALLS TO PCG ROUTINE =       50
                        MAXIMUM ITERATIONS PER CALL TO PCG =       30
                               MATRIX PRECONDITIONING TYPE =        1
        RELAXATION FACTOR (ONLY USED WITH PRECOND. TYPE 1) =    0.10000E+01
 PARAMETER OF POLYNOMIAL PRECOND. = 2 (2) OR IS CALCULATED :        0
                         HEAD CHANGE CRITERION FOR CLOSURE =    0.10000E-04
                     RESIDUAL CHANGE CRITERION FOR CLOSURE =    0.10000E-04
            PCG HEAD AND RESIDUAL CHANGE PRINTOUT INTERVAL =      999
     PRINTING FROM SOLVER IS LIMITED(1) OR SUPPRESSED (>1) =        3
                            STEADY-STATE DAMPING PARAMETER =    0.10000E+01
                               TRANSIENT DAMPING PARAMETER =    0.10000E+01

 HYD -- HYDROGRAPH DATA FOR BAS PACKAGE, VERSION 7.1, 01/29/2016
         INPUT READ FROM UNIT 36
 HYDROGRAPH VALUES WILL BE SAVED ON UNIT: 536
 HYDROGRAPH VALUES AT DRY CELLS WILL BE:  -1.00000E+07

 ARR INTYP  KLAY     XL            YL         HYDLBL
 ----------------------------------------------------------------
 HD   H      1   1.57000E+02   9.98900E+03  HDH001or00c00       
 HD   H      1   2.58000E+02   9.81400E+03  HDH001or00c01       
 HD   H      1   6.75000E+02   9.99200E+03  HDH001or00c02       
 HD   H      1   7.82000E+02   9.96000E+03  HDH001or00c03       
 HD   H      1   1.21700E+03   9.77100E+03  HDH001or00c04       
 HD   H      1   1.28600E+03   9.76200E+03  HDH001or00c05       
 HD   H      1   1.66000E+03   9.88800E+03  HDH001or00c06       
 HD   H      1   1.78500E+03   9.85600E+03  HDH001or00c07       
 HD   H      1   2.07100E+03   9.82100E+03  HDH001or00c08       
 HD   H      1   2.25400E+03   9.84100E+03  HDH001or00c09       
 HD   H      1   2.67600E+03   9.75700E+03  HDH001or00c10       
 HD   H      1   2.80600E+03   9.95000E+03  HDH001or00c11       
 HD   H      1   3.06500E+03   9.80300E+03  HDH001or00c12       
 HD   H      1   3.33400E+03   9.98400E+03  HDH001or00c13       
 HD   H      1   3.62300E+03   9.89300E+03  HDH001or00c14       
 HD   H      1   3.83000E+03   9.76700E+03  HDH001or00c15       
 HD   H      1   4.13700E+03   9.99600E+03  HDH001or00c16       
 HD   H      1   4.36800E+03   9.92200E+03  HDH001or00c17       
 HD   H      1   4.73300E+03   9.92600E+03  HDH001or00c18       
 HD   H      1   4.90000E+03   9.98000E+03  HDH001or00c19       
 HD   H      1   1.19000E+02   9.72700E+03  HDH001or01c00       
 HD   H      1   3.49000E+02   9.55000E+03  HDH001or01c01       
 HD   H      1   7.22000E+02   9.58900E+03  HDH001or01c02       
 HD   H      1   9.46000E+02   9.69000E+03  HDH001or01c03       
 HD   H      1   1.18300E+03   9.62800E+03  HDH001or01c04       
 HD   H      1   1.32200E+03   9.55500E+03  HDH001or01c05       
 HD   H      1   1.50900E+03   9.67000E+03  HDH001or01c06       
 HD   H      1   1.84300E+03   9.69200E+03  HDH001or01c07       
 HD   H      1   2.22000E+03   9.65700E+03  HDH001or01c08       
 HD   H      1   2.44600E+03   9.55000E+03  HDH001or01c09       
 HD   H      1   2.67200E+03   9.69500E+03  HDH001or01c10       
 HD   H      1   2.88100E+03   9.72200E+03  HDH001or01c11       
 HD   H      1   3.11300E+03   9.60400E+03  HDH001or01c12       
 HD   H      1   3.42000E+03   9.61900E+03  HDH001or01c13       
 HD   H      1   3.62700E+03   9.50600E+03  HDH001or01c14       
 HD   H      1   3.76300E+03   9.59600E+03  HDH001or01c15       
 HD   H      1   4.07000E+03   9.58300E+03  HDH001or01c16       
 HD   H      1   4.37700E+03   9.53000E+03  HDH001or01c17       
 HD   H      1   4.65500E+03   9.63800E+03  HDH001or01c18       
 HD   H      1   4.98000E+03   9.71900E+03  HDH001or01c19       
 HD   H      1   1.65000E+02   9.32300E+03  HDH001or02c00       
 HD   H      1   4.74000E+02   9.26200E+03  HDH001or02c01       
 HD   H      1   5.36000E+02   9.30800E+03  HDH001or02c02       
 HD   H      1   9.00000E+02   9.25200E+03  HDH001or02c03       
 HD   H      1   1.23600E+03   9.43600E+03  HDH001or02c04       
 HD   H      1   1.39200E+03   9.35000E+03  HDH001or02c05       
 HD   H      1   1.70800E+03   9.43300E+03  HDH001or02c06       
 HD   H      1   1.97800E+03   9.42400E+03  HDH001or02c07       
 HD   H      1   2.16000E+03   9.38700E+03  HDH001or02c08       
 HD   H      1   2.40300E+03   9.35500E+03  HDH001or02c09       
 HD   H      1   2.51200E+03   9.43900E+03  HDH001or02c10       
 HD   H      1   2.94700E+03   9.27100E+03  HDH001or02c11       
 HD   H      1   3.16400E+03   9.25200E+03  HDH001or02c12       
 HD   H      1   3.46200E+03   9.38900E+03  HDH001or02c13       
 HD   H      1   3.52400E+03   9.35200E+03  HDH001or02c14       
 HD   H      1   3.97000E+03   9.38500E+03  HDH001or02c15       
 HD   H      1   4.13000E+03   9.29500E+03  HDH001or02c16       
 HD   H      1   4.44000E+03   9.31200E+03  HDH001or02c17       
 HD   H      1   4.50400E+03   9.28100E+03  HDH001or02c18       
 HD   H      1   4.83000E+03   9.47800E+03  HDH001or02c19       
 HD   H      1   1.94000E+02   9.22500E+03  HDH001or03c00       
 HD   H      1   3.69000E+02   9.11000E+03  HDH001or03c01       
 HD   H      1   5.17000E+02   9.02500E+03  HDH001or03c02       
 HD   H      1   8.86000E+02   9.08000E+03  HDH001or03c03       
 HD   H      1   1.03000E+03   9.23100E+03  HDH001or03c04       
 HD   H      1   1.33400E+03   9.12800E+03  HDH001or03c05       
 HD   H      1   1.52300E+03   9.20800E+03  HDH001or03c06       
 HD   H      1   1.91800E+03   9.04400E+03  HDH001or03c07       
 HD   H      1   2.22200E+03   9.04600E+03  HDH001or03c08       
 HD   H      1   2.47900E+03   9.24700E+03  HDH001or03c09       
 HD   H      1   2.69600E+03   9.15900E+03  HDH001or03c10       
 HD   H      1   2.86200E+03   9.06400E+03  HDH001or03c11       
 HD   H      1   3.21100E+03   9.09600E+03  HDH001or03c12       
 HD   H      1   3.37700E+03   9.19200E+03  HDH001or03c13       
 HD   H      1   3.55200E+03   9.04000E+03  HDH001or03c14       
 HD   H      1   3.79100E+03   9.00100E+03  HDH001or03c15       
 HD   H      1   4.04500E+03   9.19700E+03  HDH001or03c16       
 HD   H      1   4.35000E+03   9.21100E+03  HDH001or03c17       
 HD   H      1   4.50800E+03   9.19500E+03  HDH001or03c18       
 HD   H      1   4.83200E+03   9.03600E+03  HDH001or03c19       
 HD   H      1   1.32000E+02   8.89500E+03  HDH001or04c00       
 HD   H      1   2.77000E+02   8.99800E+03  HDH001or04c01       
 HD   H      1   7.31000E+02   8.95800E+03  HDH001or04c02       
 HD   H      1   9.95000E+02   8.88100E+03  HDH001or04c03       
 HD   H      1   1.23100E+03   8.76800E+03  HDH001or04c04       
 HD   H      1   1.31000E+03   8.86500E+03  HDH001or04c05       
 HD   H      1   1.73600E+03   8.85700E+03  HDH001or04c06       
 HD   H      1   1.97500E+03   8.95200E+03  HDH001or04c07       
 HD   H      1   2.22100E+03   8.79000E+03  HDH001or04c08       
 HD   H      1   2.25600E+03   8.81900E+03  HDH001or04c09       
 HD   H      1   2.68000E+03   8.95700E+03  HDH001or04c10       
 HD   H      1   2.89600E+03   8.92200E+03  HDH001or04c11       
 HD   H      1   3.12600E+03   8.94200E+03  HDH001or04c12       
 HD   H      1   3.36800E+03   8.85500E+03  HDH001or04c13       
 HD   H      1   3.50000E+03   8.86900E+03  HDH001or04c14       
 HD   H      1   3.98700E+03   8.91200E+03  HDH001or04c15       
 HD   H      1   4.17700E+03   8.97700E+03  HDH001or04c16       
 HD   H      1   4.30700E+03   8.99500E+03  HDH001or04c17       
 HD   H      1   4.62600E+03   8.79500E+03  HDH001or04c18       
 HD   H      1   4.86600E+03   8.86100E+03  HDH001or04c19       
 HD   H      1   7.00000E+00   8.68300E+03  HDH001or05c00       
 HD   H      1   4.31000E+02   8.51500E+03  HDH001or05c01       
 HD   H      1   5.62000E+02   8.59600E+03  HDH001or05c02       
 HD   H      1   8.55000E+02   8.66800E+03  HDH001or05c03       
 HD   H      1   1.24600E+03   8.63600E+03  HDH001or05c04       
 HD   H      1   1.26100E+03   8.53400E+03  HDH001or05c05       
 HD   H      1   1.63100E+03   8.62200E+03  HDH001or05c06       
 HD   H      1   1.83500E+03   8.70900E+03  HDH001or05c07       
 HD   H      1   2.20400E+03   8.62100E+03  HDH001or05c08       
 HD   H      1   2.28400E+03   8.55700E+03  HDH001or05c09       
 HD   H      1   2.51400E+03   8.51000E+03  HDH001or05c10       
 HD   H      1   2.97200E+03   8.64600E+03  HDH001or05c11       
 HD   H      1   3.15600E+03   8.61600E+03  HDH001or05c12       
 HD   H      1   3.44600E+03   8.66100E+03  HDH001or05c13       
 HD   H      1   3.64300E+03   8.68300E+03  HDH001or05c14       
 HD   H      1   3.96100E+03   8.54000E+03  HDH001or05c15       
 HD   H      1   4.17500E+03   8.54900E+03  HDH001or05c16       
 HD   H      1   4.32400E+03   8.72300E+03  HDH001or05c17       
 HD   H      1   4.58200E+03   8.70400E+03  HDH001or05c18       
 HD   H      1   4.88000E+03   8.64500E+03  HDH001or05c19       
 HD   H      1   1.06000E+02   8.30100E+03  HDH001or06c00       
 HD   H      1   2.97000E+02   8.39500E+03  HDH001or06c01       
 HD   H      1   6.65000E+02   8.29200E+03  HDH001or06c02       
 HD   H      1   8.00000E+02   8.27700E+03  HDH001or06c03       
 HD   H      1   1.14100E+03   8.37200E+03  HDH001or06c04       
 HD   H      1   1.31200E+03   8.45700E+03  HDH001or06c05       
 HD   H      1   1.54100E+03   8.37900E+03  HDH001or06c06       
 HD   H      1   1.99300E+03   8.47400E+03  HDH001or06c07       
 HD   H      1   2.18200E+03   8.43500E+03  HDH001or06c08       
 HD   H      1   2.49200E+03   8.41400E+03  HDH001or06c09       
 HD   H      1   2.58600E+03   8.27000E+03  HDH001or06c10       
 HD   H      1   2.99000E+03   8.46000E+03  HDH001or06c11       
 HD   H      1   3.00400E+03   8.29300E+03  HDH001or06c12       
 HD   H      1   3.25000E+03   8.31000E+03  HDH001or06c13       
 HD   H      1   3.74400E+03   8.33400E+03  HDH001or06c14       
 HD   H      1   3.97000E+03   8.28300E+03  HDH001or06c15       
 HD   H      1   4.18400E+03   8.38300E+03  HDH001or06c16       
 HD   H      1   4.38400E+03   8.45800E+03  HDH001or06c17       
 HD   H      1   4.57600E+03   8.49700E+03  HDH001or06c18       
 HD   H      1   4.94300E+03   8.28800E+03  HDH001or06c19       
 HD   H      1   1.37000E+02   8.01500E+03  HDH001or07c00       
 HD   H      1   4.34000E+02   8.13300E+03  HDH001or07c01       
 HD   H      1   5.19000E+02   8.21500E+03  HDH001or07c02       
 HD   H      1   8.72000E+02   8.08700E+03  HDH001or07c03       
 HD   H      1   1.23600E+03   8.23400E+03  HDH001or07c04       
 HD   H      1   1.30200E+03   8.17100E+03  HDH001or07c05       
 HD   H      1   1.68000E+03   8.20200E+03  HDH001or07c06       
 HD   H      1   1.89900E+03   8.08000E+03  HDH001or07c07       
 HD   H      1   2.22800E+03   8.08800E+03  HDH001or07c08       
 HD   H      1   2.37200E+03   8.24900E+03  HDH001or07c09       
 HD   H      1   2.50400E+03   8.05100E+03  HDH001or07c10       
 HD   H      1   2.83000E+03   8.20300E+03  HDH001or07c11       
 HD   H      1   3.21400E+03   8.05200E+03  HDH001or07c12       
 HD   H      1   3.29700E+03   8.19900E+03  HDH001or07c13       
 HD   H      1   3.63500E+03   8.21700E+03  HDH001or07c14       
 HD   H      1   3.89500E+03   8.10600E+03  HDH001or07c15       
 HD   H      1   4.06600E+03   8.11000E+03  HDH001or07c16       
 HD   H      1   4.42000E+03   8.14800E+03  HDH001or07c17       
 HD   H      1   4.59800E+03   8.15900E+03  HDH001or07c18       
 HD   H      1   4.93900E+03   8.04400E+03  HDH001or07c19       
 HD   H      1   4.60000E+01   7.91400E+03  HDH001or08c00       
 HD   H      1   4.94000E+02   7.82600E+03  HDH001or08c01       
 HD   H      1   7.43000E+02   7.80200E+03  HDH001or08c02       
 HD   H      1   9.13000E+02   7.94600E+03  HDH001or08c03       
 HD   H      1   1.78700E+03   7.75400E+03  HDH001or08c07       
 HD   H      1   2.19600E+03   7.99600E+03  HDH001or08c08       
 HD   H      1   2.48600E+03   7.78400E+03  HDH001or08c09       
 HD   H      1   2.63600E+03   7.98100E+03  HDH001or08c10       
 HD   H      1   2.85700E+03   7.78100E+03  HDH001or08c11       
 HD   H      1   3.05300E+03   7.87500E+03  HDH001or08c12       
 HD   H      1   3.44800E+03   7.75400E+03  HDH001or08c13       
 HD   H      1   3.69700E+03   7.91200E+03  HDH001or08c14       
 HD   H      1   3.96800E+03   7.94400E+03  HDH001or08c15       
 HD   H      1   4.24900E+03   7.94100E+03  HDH001or08c16       
 HD   H      1   4.27600E+03   7.85800E+03  HDH001or08c17       
 HD   H      1   4.61500E+03   7.77600E+03  HDH001or08c18       
 HD   H      1   4.98600E+03   7.86600E+03  HDH001or08c19       
 HD   H      1   4.50000E+01   7.62000E+03  HDH001or09c00       
 HD   H      1   3.53000E+02   7.71900E+03  HDH001or09c01       
 HD   H      1   5.92000E+02   7.61400E+03  HDH001or09c02       
 HD   H      1   9.19000E+02   7.58400E+03  HDH001or09c03       
 HD   H      1   2.01800E+03   7.59700E+03  HDH001or09c08       
 HD   H      1   2.31200E+03   7.64500E+03  HDH001or09c09       
 HD   H      1   2.65100E+03   7.73600E+03  HDH001or09c10       
 HD   H      1   2.81800E+03   7.70000E+03  HDH001or09c11       
 HD   H      1   3.21300E+03   7.54900E+03  HDH001or09c12       
 HD   H      1   3.26100E+03   7.56800E+03  HDH001or09c13       
 HD   H      1   3.62900E+03   7.67400E+03  HDH001or09c14       
 HD   H      1   3.96800E+03   7.65400E+03  HDH001or09c15       
 HD   H      1   4.03200E+03   7.70800E+03  HDH001or09c16       
 HD   H      1   4.42200E+03   7.71500E+03  HDH001or09c17       
 HD   H      1   4.50800E+03   7.58800E+03  HDH001or09c18       
 HD   H      1   4.97100E+03   7.57300E+03  HDH001or09c19       
 HD   H      1   2.31000E+02   7.26400E+03  HDH001or10c00       
 HD   H      1   3.99000E+02   7.36700E+03  HDH001or10c01       
 HD   H      1   5.40000E+02   7.34100E+03  HDH001or10c02       
 HD   H      1   7.52000E+02   7.49300E+03  HDH001or10c03       
 HD   H      1   2.11500E+03   7.27100E+03  HDH001or10c08       
 HD   H      1   2.43300E+03   7.37200E+03  HDH001or10c09       
 HD   H      1   2.73300E+03   7.32500E+03  HDH001or10c10       
 HD   H      1   2.76200E+03   7.49500E+03  HDH001or10c11       
 HD   H      1   3.03300E+03   7.34500E+03  HDH001or10c12       
 HD   H      1   3.27800E+03   7.28400E+03  HDH001or10c13       
 HD   H      1   3.66000E+03   7.38400E+03  HDH001or10c14       
 HD   H      1   3.75900E+03   7.30100E+03  HDH001or10c15       
 HD   H      1   4.02700E+03   7.38500E+03  HDH001or10c16       
 HD   H      1   4.35800E+03   7.38400E+03  HDH001or10c17       
 HD   H      1   4.73700E+03   7.25700E+03  HDH001or10c18       
 HD   H      1   4.96500E+03   7.26000E+03  HDH001or10c19       
 HD   H      1   1.75000E+02   7.10600E+03  HDH001or11c00       
 HD   H      1   3.99000E+02   7.09800E+03  HDH001or11c01       
 HD   H      1   7.04000E+02   7.01600E+03  HDH001or11c02       
 HD   H      1   9.65000E+02   7.11800E+03  HDH001or11c03       
 HD   H      1   2.11700E+03   7.03100E+03  HDH001or11c08       
 HD   H      1   2.38000E+03   7.05300E+03  HDH001or11c09       
 HD   H      1   2.74000E+03   7.06600E+03  HDH001or11c10       
 HD   H      1   2.90600E+03   7.13700E+03  HDH001or11c11       
 HD   H      1   3.18900E+03   7.05800E+03  HDH001or11c12       
 HD   H      1   3.26300E+03   7.23500E+03  HDH001or11c13       
 HD   H      1   3.53300E+03   7.03800E+03  HDH001or11c14       
 HD   H      1   3.82700E+03   7.02400E+03  HDH001or11c15       
 HD   H      1   4.23300E+03   7.24300E+03  HDH001or11c16       
 HD   H      1   4.46600E+03   7.09400E+03  HDH001or11c17       
 HD   H      1   4.55100E+03   7.16800E+03  HDH001or11c18       
 HD   H      1   4.92600E+03   7.20600E+03  HDH001or11c19       
 HD   H      1   1.87000E+02   6.79700E+03  HDH001or12c00       
 HD   H      1   4.70000E+02   6.86800E+03  HDH001or12c01       
 HD   H      1   5.18000E+02   6.93400E+03  HDH001or12c02       
 HD   H      1   7.70000E+02   6.88200E+03  HDH001or12c03       
 HD   H      1   2.04700E+03   6.96100E+03  HDH001or12c08       
 HD   H      1   2.49300E+03   6.76800E+03  HDH001or12c09       
 HD   H      1   2.62700E+03   6.92600E+03  HDH001or12c10       
 HD   H      1   2.79100E+03   6.93300E+03  HDH001or12c11       
 HD   H      1   3.09000E+03   6.84200E+03  HDH001or12c12       
 HD   H      1   3.26100E+03   6.94400E+03  HDH001or12c13       
 HD   H      1   3.55300E+03   6.86000E+03  HDH001or12c14       
 HD   H      1   3.82300E+03   6.95300E+03  HDH001or12c15       
 HD   H      1   4.03400E+03   6.88900E+03  HDH001or12c16       
 HD   H      1   4.47700E+03   6.79000E+03  HDH001or12c17       
 HD   H      1   4.57800E+03   6.89500E+03  HDH001or12c18       
 HD   H      1   4.92800E+03   6.81500E+03  HDH001or12c19       
 HD   H      1   1.64000E+02   6.60100E+03  HDH001or13c00       
 HD   H      1   4.96000E+02   6.52800E+03  HDH001or13c01       
 HD   H      1   6.26000E+02   6.60200E+03  HDH001or13c02       
 HD   H      1   8.89000E+02   6.75000E+03  HDH001or13c03       
 HD   H      1   2.09300E+03   6.62000E+03  HDH001or13c08       
 HD   H      1   2.39300E+03   6.54100E+03  HDH001or13c09       
 HD   H      1   2.68000E+03   6.60900E+03  HDH001or13c10       
 HD   H      1   2.89000E+03   6.50800E+03  HDH001or13c11       
 HD   H      1   3.04200E+03   6.63900E+03  HDH001or13c12       
 HD   H      1   3.26200E+03   6.51000E+03  HDH001or13c13       
 HD   H      1   3.56400E+03   6.74600E+03  HDH001or13c14       
 HD   H      1   3.92700E+03   6.58100E+03  HDH001or13c15       
 HD   H      1   4.10600E+03   6.54100E+03  HDH001or13c16       
 HD   H      1   4.35800E+03   6.52000E+03  HDH001or13c17       
 HD   H      1   4.64000E+03   6.66100E+03  HDH001or13c18       
 HD   H      1   4.86800E+03   6.65900E+03  HDH001or13c19       
 HD   H      1   7.10000E+01   6.32400E+03  HDH001or14c00       
 HD   H      1   2.60000E+02   6.38700E+03  HDH001or14c01       
 HD   H      1   7.25000E+02   6.46600E+03  HDH001or14c02       
 HD   H      1   9.54000E+02   6.44100E+03  HDH001or14c03       
 HD   H      1   2.17100E+03   6.32500E+03  HDH001or14c08       
 HD   H      1   2.34200E+03   6.35000E+03  HDH001or14c09       
 HD   H      1   2.68100E+03   6.35900E+03  HDH001or14c10       
 HD   H      1   2.80800E+03   6.48600E+03  HDH001or14c11       
 HD   H      1   3.04600E+03   6.36800E+03  HDH001or14c12       
 HD   H      1   3.41800E+03   6.33900E+03  HDH001or14c13       
 HD   H      1   3.66200E+03   6.48200E+03  HDH001or14c14       
 HD   H      1   3.96100E+03   6.43300E+03  HDH001or14c15       
 HD   H      1   4.21600E+03   6.39100E+03  HDH001or14c16       
 HD   H      1   4.34400E+03   6.40500E+03  HDH001or14c17       
 HD   H      1   4.51000E+03   6.38500E+03  HDH001or14c18       
 HD   H      1   4.75500E+03   6.37100E+03  HDH001or14c19       
 HD   H      1   2.10000E+01   6.23200E+03  HDH001or15c00       
 HD   H      1   3.92000E+02   6.09400E+03  HDH001or15c01       
 HD   H      1   6.29000E+02   6.13200E+03  HDH001or15c02       
 HD   H      1   7.76000E+02   6.02700E+03  HDH001or15c03       
 HD   H      1   2.14900E+03   6.22800E+03  HDH001or15c08       
 HD   H      1   2.49900E+03   6.22600E+03  HDH001or15c09       
 HD   H      1   2.53100E+03   6.13500E+03  HDH001or15c10       
 HD   H      1   2.90400E+03   6.23400E+03  HDH001or15c11       
 HD   H      1   3.02900E+03   6.09900E+03  HDH001or15c12       
 HD   H      1   3.33500E+03   6.20400E+03  HDH001or15c13       
 HD   H      1   3.62700E+03   6.09300E+03  HDH001or15c14       
 HD   H      1   3.83300E+03   6.00600E+03  HDH001or15c15       
 HD   H      1   4.02500E+03   6.08100E+03  HDH001or15c16       
 HD   H      1   4.37000E+03   6.13300E+03  HDH001or15c17       
 HD   H      1   4.74000E+03   6.20200E+03  HDH001or15c18       
 HD   H      1   4.91400E+03   6.13900E+03  HDH001or15c19       
 HD   H      1   2.50000E+02   5.77300E+03  HDH001or16c00       
 HD   H      1   3.61000E+02   5.78000E+03  HDH001or16c01       
 HD   H      1   7.25000E+02   5.88100E+03  HDH001or16c02       
 HD   H      1   9.90000E+02   5.92300E+03  HDH001or16c03       
 HD   H      1   2.07900E+03   5.75400E+03  HDH001or16c08       
 HD   H      1   2.32700E+03   5.75400E+03  HDH001or16c09       
 HD   H      1   2.60100E+03   5.92000E+03  HDH001or16c10       
 HD   H      1   2.95100E+03   5.81500E+03  HDH001or16c11       
 HD   H      1   3.00700E+03   5.93600E+03  HDH001or16c12       
 HD   H      1   3.38800E+03   5.97600E+03  HDH001or16c13       
 HD   H      1   3.64600E+03   5.86800E+03  HDH001or16c14       
 HD   H      1   3.75600E+03   5.77800E+03  HDH001or16c15       
 HD   H      1   4.22200E+03   5.91100E+03  HDH001or16c16       
 HD   H      1   4.35200E+03   5.85000E+03  HDH001or16c17       
 HD   H      1   4.70200E+03   5.89300E+03  HDH001or16c18       
 HD   H      1   4.79600E+03   5.98700E+03  HDH001or16c19       
 HD   H      1   2.02000E+02   5.68200E+03  HDH001or17c00       
 HD   H      1   4.02000E+02   5.70300E+03  HDH001or17c01       
 HD   H      1   5.79000E+02   5.67500E+03  HDH001or17c02       
 HD   H      1   9.34000E+02   5.55800E+03  HDH001or17c03       
 HD   H      1   2.17600E+03   5.68000E+03  HDH001or17c08       
 HD   H      1   2.42000E+03   5.50100E+03  HDH001or17c09       
 HD   H      1   2.66800E+03   5.54600E+03  HDH001or17c10       
 HD   H      1   2.89900E+03   5.73400E+03  HDH001or17c11       
 HD   H      1   3.06900E+03   5.55300E+03  HDH001or17c12       
 HD   H      1   3.44400E+03   5.55100E+03  HDH001or17c13       
 HD   H      1   3.72300E+03   5.50600E+03  HDH001or17c14       
 HD   H      1   3.83300E+03   5.66400E+03  HDH001or17c15       
 HD   H      1   4.13000E+03   5.53200E+03  HDH001or17c16       
 HD   H      1   4.36300E+03   5.52700E+03  HDH001or17c17       
 HD   H      1   4.67200E+03   5.56800E+03  HDH001or17c18       
 HD   H      1   4.95900E+03   5.57200E+03  HDH001or17c19       
 HD   H      1   1.63000E+02   5.35800E+03  HDH001or18c00       
 HD   H      1   3.27000E+02   5.46300E+03  HDH001or18c01       
 HD   H      1   6.04000E+02   5.38600E+03  HDH001or18c02       
 HD   H      1   8.46000E+02   5.30800E+03  HDH001or18c03       
 HD   H      1   2.19700E+03   5.32400E+03  HDH001or18c08       
 HD   H      1   2.28700E+03   5.37100E+03  HDH001or18c09       
 HD   H      1   2.64500E+03   5.27800E+03  HDH001or18c10       
 HD   H      1   2.86400E+03   5.38200E+03  HDH001or18c11       
 HD   H      1   3.13500E+03   5.25000E+03  HDH001or18c12       
 HD   H      1   3.28500E+03   5.49900E+03  HDH001or18c13       
 HD   H      1   3.74600E+03   5.35100E+03  HDH001or18c14       
 HD   H      1   3.89300E+03   5.49600E+03  HDH001or18c15       
 HD   H      1   4.13100E+03   5.31900E+03  HDH001or18c16       
 HD   H      1   4.32400E+03   5.29100E+03  HDH001or18c17       
 HD   H      1   4.66700E+03   5.29500E+03  HDH001or18c18       
 HD   H      1   4.82700E+03   5.38700E+03  HDH001or18c19       
 HD   H      1   2.31000E+02   5.16000E+03  HDH001or19c00       
 HD   H      1   4.71000E+02   5.08300E+03  HDH001or19c01       
 HD   H      1   7.15000E+02   5.16400E+03  HDH001or19c02       
 HD   H      1   7.84000E+02   5.02600E+03  HDH001or19c03       
 HD   H      1   2.06000E+03   5.15200E+03  HDH001or19c08       
 HD   H      1   2.43800E+03   5.17200E+03  HDH001or19c09       
 HD   H      1   2.73400E+03   5.18700E+03  HDH001or19c10       
 HD   H      1   2.83200E+03   5.16900E+03  HDH001or19c11       
 HD   H      1   3.07000E+03   5.10600E+03  HDH001or19c12       
 HD   H      1   3.40600E+03   5.04100E+03  HDH001or19c13       
 HD   H      1   3.74500E+03   5.13200E+03  HDH001or19c14       
 HD   H      1   3.82200E+03   5.16200E+03  HDH001or19c15       
 HD   H      1   4.12200E+03   5.17500E+03  HDH001or19c16       
 HD   H      1   4.38300E+03   5.01600E+03  HDH001or19c17       
 HD   H      1   4.62800E+03   5.10000E+03  HDH001or19c18       
 HD   H      1   4.91600E+03   5.05000E+03  HDH001or19c19       
 HD   H      1   5.70000E+01   4.76500E+03  HDH001or20c00       
 HD   H      1   2.84000E+02   4.97700E+03  HDH001or20c01       
 HD   H      1   6.93000E+02   4.94800E+03  HDH001or20c02       
 HD   H      1   8.88000E+02   4.78300E+03  HDH001or20c03       
 HD   H      1   2.10500E+03   4.88400E+03  HDH001or20c08       
 HD   H      1   2.31300E+03   4.86100E+03  HDH001or20c09       
 HD   H      1   2.56600E+03   4.80100E+03  HDH001or20c10       
 HD   H      1   2.85100E+03   4.99700E+03  HDH001or20c11       
 HD   H      1   3.08100E+03   4.92700E+03  HDH001or20c12       
 HD   H      1   3.41200E+03   4.95300E+03  HDH001or20c13       
 HD   H      1   3.53100E+03   4.81600E+03  HDH001or20c14       
 HD   H      1   3.88200E+03   4.89700E+03  HDH001or20c15       
 HD   H      1   4.01900E+03   4.91200E+03  HDH001or20c16       
 HD   H      1   4.48700E+03   4.89000E+03  HDH001or20c17       
 HD   H      1   4.70900E+03   4.97800E+03  HDH001or20c18       
 HD   H      1   4.79800E+03   4.93300E+03  HDH001or20c19       
 HD   H      1   1.37000E+02   4.54900E+03  HDH001or21c00       
 HD   H      1   4.43000E+02   4.58800E+03  HDH001or21c01       
 HD   H      1   6.91000E+02   4.68300E+03  HDH001or21c02       
 HD   H      1   7.86000E+02   4.72200E+03  HDH001or21c03       
 HD   H      1   1.56700E+03   4.62300E+03  HDH001or21c06       
 HD   H      1   1.94200E+03   4.60500E+03  HDH001or21c07       
 HD   H      1   2.04600E+03   4.61700E+03  HDH001or21c08       
 HD   H      1   2.34200E+03   4.51900E+03  HDH001or21c09       
 HD   H      1   2.57300E+03   4.67700E+03  HDH001or21c10       
 HD   H      1   2.92600E+03   4.66000E+03  HDH001or21c11       
 HD   H      1   3.16100E+03   4.56100E+03  HDH001or21c12       
 HD   H      1   3.25200E+03   4.67700E+03  HDH001or21c13       
 HD   H      1   3.71900E+03   4.60700E+03  HDH001or21c14       
 HD   H      1   3.85400E+03   4.50300E+03  HDH001or21c15       
 HD   H      1   4.02600E+03   4.61200E+03  HDH001or21c16       
 HD   H      1   4.49700E+03   4.71400E+03  HDH001or21c17       
 HD   H      1   4.73700E+03   4.71100E+03  HDH001or21c18       
 HD   H      1   4.88400E+03   4.73600E+03  HDH001or21c19       
 HD   H      1   9.00000E+00   4.43700E+03  HDH001or22c00       
 HD   H      1   4.50000E+02   4.48500E+03  HDH001or22c01       
 HD   H      1   5.91000E+02   4.46100E+03  HDH001or22c02       
 HD   H      1   9.66000E+02   4.41100E+03  HDH001or22c03       
 HD   H      1   1.10200E+03   4.38100E+03  HDH001or22c04       
 HD   H      1   1.60900E+03   4.39600E+03  HDH001or22c06       
 HD   H      1   1.80500E+03   4.30500E+03  HDH001or22c07       
 HD   H      1   2.03400E+03   4.34300E+03  HDH001or22c08       
 HD   H      1   2.32100E+03   4.44800E+03  HDH001or22c09       
 HD   H      1   2.52200E+03   4.30700E+03  HDH001or22c10       
 HD   H      1   2.77500E+03   4.45800E+03  HDH001or22c11       
 HD   H      1   3.15100E+03   4.29200E+03  HDH001or22c12       
 HD   H      1   3.45700E+03   4.30900E+03  HDH001or22c13       
 HD   H      1   3.72200E+03   4.31700E+03  HDH001or22c14       
 HD   H      1   3.83600E+03   4.39800E+03  HDH001or22c15       
 HD   H      1   4.01200E+03   4.41100E+03  HDH001or22c16       
 HD   H      1   4.26300E+03   4.25100E+03  HDH001or22c17       
 HD   H      1   4.61800E+03   4.33800E+03  HDH001or22c18       
 HD   H      1   4.96900E+03   4.39000E+03  HDH001or22c19       
 HD   H      1   1.00000E+00   4.12700E+03  HDH001or23c00       
 HD   H      1   4.54000E+02   4.18400E+03  HDH001or23c01       
 HD   H      1   7.45000E+02   4.05700E+03  HDH001or23c02       
 HD   H      1   8.28000E+02   4.16600E+03  HDH001or23c03       
 HD   H      1   1.24800E+03   4.03800E+03  HDH001or23c04       
 HD   H      1   1.47500E+03   4.17600E+03  HDH001or23c05       
 HD   H      1   1.51800E+03   4.10000E+03  HDH001or23c06       
 HD   H      1   1.98600E+03   4.15300E+03  HDH001or23c07       
 HD   H      1   2.20400E+03   4.23700E+03  HDH001or23c08       
 HD   H      1   2.26600E+03   4.02600E+03  HDH001or23c09       
 HD   H      1   2.72200E+03   4.14400E+03  HDH001or23c10       
 HD   H      1   2.79500E+03   4.10500E+03  HDH001or23c11       
 HD   H      1   3.15000E+03   4.08000E+03  HDH001or23c12       
 HD   H      1   3.39200E+03   4.16900E+03  HDH001or23c13       
 HD   H      1   3.74400E+03   4.22000E+03  HDH001or23c14       
 HD   H      1   3.92000E+03   4.24600E+03  HDH001or23c15       
 HD   H      1   4.13900E+03   4.20800E+03  HDH001or23c16       
 HD   H      1   4.41800E+03   4.01600E+03  HDH001or23c17       
 HD   H      1   4.65400E+03   4.15900E+03  HDH001or23c18       
 HD   H      1   4.75900E+03   4.21600E+03  HDH001or23c19       
 HD   H      1   2.32000E+02   3.90700E+03  HDH001or24c00       
 HD   H      1   2.81000E+02   3.82000E+03  HDH001or24c01       
 HD   H      1   5.11000E+02   3.89700E+03  HDH001or24c02       
 HD   H      1   7.92000E+02   3.76200E+03  HDH001or24c03       
 HD   H      1   1.24900E+03   3.84100E+03  HDH001or24c04       
 HD   H      1   1.25800E+03   3.91100E+03  HDH001or24c05       
 HD   H      1   1.51000E+03   3.82700E+03  HDH001or24c06       
 HD   H      1   1.81100E+03   3.97600E+03  HDH001or24c07       
 HD   H      1   2.11900E+03   3.93300E+03  HDH001or24c08       
 HD   H      1   2.36600E+03   3.89100E+03  HDH001or24c09       
 HD   H      1   2.60000E+03   3.84500E+03  HDH001or24c10       
 HD   H      1   2.97500E+03   3.83200E+03  HDH001or24c11       
 HD   H      1   3.04000E+03   3.77800E+03  HDH001or24c12       
 HD   H      1   3.47600E+03   3.85300E+03  HDH001or24c13       
 HD   H      1   3.54100E+03   3.77200E+03  HDH001or24c14       
 HD   H      1   3.85600E+03   3.76500E+03  HDH001or24c15       
 HD   H      1   4.16000E+03   3.86700E+03  HDH001or24c16       
 HD   H      1   4.37200E+03   3.99500E+03  HDH001or24c17       
 HD   H      1   4.71100E+03   3.83500E+03  HDH001or24c18       
 HD   H      1   4.84100E+03   3.77500E+03  HDH001or24c19       
 HD   H      1   2.46000E+02   3.64600E+03  HDH001or25c00       
 HD   H      1   3.30000E+02   3.56200E+03  HDH001or25c01       
 HD   H      1   5.43000E+02   3.64100E+03  HDH001or25c02       
 HD   H      1   8.05000E+02   3.56100E+03  HDH001or25c03       
 HD   H      1   1.23100E+03   3.72400E+03  HDH001or25c04       
 HD   H      1   1.47000E+03   3.57100E+03  HDH001or25c05       
 HD   H      1   1.67300E+03   3.53700E+03  HDH001or25c06       
 HD   H      1   1.81400E+03   3.51500E+03  HDH001or25c07       
 HD   H      1   2.19600E+03   3.69600E+03  HDH001or25c08       
 HD   H      1   2.33500E+03   3.73100E+03  HDH001or25c09       
 HD   H      1   2.69100E+03   3.58600E+03  HDH001or25c10       
 HD   H      1   2.81100E+03   3.59300E+03  HDH001or25c11       
 HD   H      1   3.13200E+03   3.66300E+03  HDH001or25c12       
 HD   H      1   3.27200E+03   3.52600E+03  HDH001or25c13       
 HD   H      1   3.65100E+03   3.54600E+03  HDH001or25c14       
 HD   H      1   3.84000E+03   3.72900E+03  HDH001or25c15       
 HD   H      1   4.20100E+03   3.59600E+03  HDH001or25c16       
 HD   H      1   4.30000E+03   3.52400E+03  HDH001or25c17       
 HD   H      1   4.61600E+03   3.54700E+03  HDH001or25c18       
 HD   H      1   4.83200E+03   3.51700E+03  HDH001or25c19       
 HD   H      1   2.26000E+02   3.44900E+03  HDH001or26c00       
 HD   H      1   4.84000E+02   3.39400E+03  HDH001or26c01       
 HD   H      1   5.96000E+02   3.31800E+03  HDH001or26c02       
 HD   H      1   9.46000E+02   3.42200E+03  HDH001or26c03       
 HD   H      1   1.15200E+03   3.25600E+03  HDH001or26c04       
 HD   H      1   1.26500E+03   3.42000E+03  HDH001or26c05       
 HD   H      1   1.63500E+03   3.40000E+03  HDH001or26c06       
 HD   H      1   1.95500E+03   3.38200E+03  HDH001or26c07       
 HD   H      1   2.08700E+03   3.45800E+03  HDH001or26c08       
 HD   H      1   2.33600E+03   3.31200E+03  HDH001or26c09       
 HD   H      1   2.72300E+03   3.34200E+03  HDH001or26c10       
 HD   H      1   2.91200E+03   3.35000E+03  HDH001or26c11       
 HD   H      1   3.06700E+03   3.31000E+03  HDH001or26c12       
 HD   H      1   3.31500E+03   3.27000E+03  HDH001or26c13       
 HD   H      1   3.64800E+03   3.46700E+03  HDH001or26c14       
 HD   H      1   3.80400E+03   3.45900E+03  HDH001or26c15       
 HD   H      1   4.02800E+03   3.25300E+03  HDH001or26c16       
 HD   H      1   4.37900E+03   3.42300E+03  HDH001or26c17       
 HD   H      1   4.64400E+03   3.41200E+03  HDH001or26c18       
 HD   H      1   4.88500E+03   3.46400E+03  HDH001or26c19       
 HD   H      1   1.77000E+02   3.08500E+03  HDH001or27c00       
 HD   H      1   4.91000E+02   3.00700E+03  HDH001or27c01       
 HD   H      1   5.44000E+02   3.09800E+03  HDH001or27c02       
 HD   H      1   8.50000E+02   3.08300E+03  HDH001or27c03       
 HD   H      1   1.18500E+03   3.23000E+03  HDH001or27c04       
 HD   H      1   1.39800E+03   3.21200E+03  HDH001or27c05       
 HD   H      1   1.56200E+03   3.10600E+03  HDH001or27c06       
 HD   H      1   1.87600E+03   3.14900E+03  HDH001or27c07       
 HD   H      1   2.16300E+03   3.10300E+03  HDH001or27c08       
 HD   H      1   2.32100E+03   3.20800E+03  HDH001or27c09       
 HD   H      1   2.68500E+03   3.23900E+03  HDH001or27c10       
 HD   H      1   2.86800E+03   3.01100E+03  HDH001or27c11       
 HD   H      1   3.19300E+03   3.19000E+03  HDH001or27c12       
 HD   H      1   3.33600E+03   3.17700E+03  HDH001or27c13       
 HD   H      1   3.69100E+03   3.03400E+03  HDH001or27c14       
 HD   H      1   3.82300E+03   3.00400E+03  HDH001or27c15       
 HD   H      1   4.18900E+03   3.24200E+03  HDH001or27c16       
 HD   H      1   4.41600E+03   3.10400E+03  HDH001or27c17       
 HD   H      1   4.66500E+03   3.03900E+03  HDH001or27c18       
 HD   H      1   4.76800E+03   3.14500E+03  HDH001or27c19       
 HD   H      1   4.30000E+01   2.87200E+03  HDH001or28c00       
 HD   H      1   2.81000E+02   2.79700E+03  HDH001or28c01       
 HD   H      1   5.89000E+02   2.97200E+03  HDH001or28c02       
 HD   H      1   9.02000E+02   2.92000E+03  HDH001or28c03       
 HD   H      1   1.02500E+03   2.82700E+03  HDH001or28c04       
 HD   H      1   1.30800E+03   2.97800E+03  HDH001or28c05       
 HD   H      1   1.72200E+03   2.75000E+03  HDH001or28c06       
 HD   H      1   1.99900E+03   2.81400E+03  HDH001or28c07       
 HD   H      1   2.16000E+03   2.90400E+03  HDH001or28c08       
 HD   H      1   2.34100E+03   2.87300E+03  HDH001or28c09       
 HD   H      1   2.65100E+03   2.86600E+03  HDH001or28c10       
 HD   H      1   2.84800E+03   2.94300E+03  HDH001or28c11       
 HD   H      1   3.23700E+03   2.94200E+03  HDH001or28c12       
 HD   H      1   3.46300E+03   2.93000E+03  HDH001or28c13       
 HD   H      1   3.59300E+03   2.88700E+03  HDH001or28c14       
 HD   H      1   3.87400E+03   2.85900E+03  HDH001or28c15       
 HD   H      1   4.21300E+03   2.86100E+03  HDH001or28c16       
 HD   H      1   4.29300E+03   2.80500E+03  HDH001or28c17       
 HD   H      1   4.58900E+03   2.81700E+03  HDH001or28c18       
 HD   H      1   4.83500E+03   2.82300E+03  HDH001or28c19       
 HD   H      1   8.50000E+01   2.64200E+03  HDH001or29c00       
 HD   H      1   4.23000E+02   2.70400E+03  HDH001or29c01       
 HD   H      1   5.13000E+02   2.59100E+03  HDH001or29c02       
 HD   H      1   9.70000E+02   2.69300E+03  HDH001or29c03       
 HD   H      1   1.08800E+03   2.56200E+03  HDH001or29c04       
 HD   H      1   1.29800E+03   2.67200E+03  HDH001or29c05       
 HD   H      1   1.51000E+03   2.54900E+03  HDH001or29c06       
 HD   H      1   1.75900E+03   2.62300E+03  HDH001or29c07       
 HD   H      1   2.20800E+03   2.71700E+03  HDH001or29c08       
 HD   H      1   2.37600E+03   2.72900E+03  HDH001or29c09       
 HD   H      1   2.64400E+03   2.69000E+03  HDH001or29c10       
 HD   H      1   2.83400E+03   2.65900E+03  HDH001or29c11       
 HD   H      1   3.23700E+03   2.70700E+03  HDH001or29c12       
 HD   H      1   3.47200E+03   2.63000E+03  HDH001or29c13       
 HD   H      1   3.60500E+03   2.69600E+03  HDH001or29c14       
 HD   H      1   3.96100E+03   2.58400E+03  HDH001or29c15       
 HD   H      1   4.21100E+03   2.53600E+03  HDH001or29c16       
 HD   H      1   4.48500E+03   2.65000E+03  HDH001or29c17       
 HD   H      1   4.69700E+03   2.73800E+03  HDH001or29c18       
 HD   H      1   4.92800E+03   2.69700E+03  HDH001or29c19       
 HD   H      1   1.90000E+01   2.33200E+03  HDH001or30c00       
 HD   H      1   3.75000E+02   2.33200E+03  HDH001or30c01       
 HD   H      1   7.01000E+02   2.42600E+03  HDH001or30c02       
 HD   H      1   7.66000E+02   2.32900E+03  HDH001or30c03       
 HD   H      1   1.06300E+03   2.25000E+03  HDH001or30c04       
 HD   H      1   1.41400E+03   2.42100E+03  HDH001or30c05       
 HD   H      1   1.71800E+03   2.48100E+03  HDH001or30c06       
 HD   H      1   1.92200E+03   2.38000E+03  HDH001or30c07       
 HD   H      1   2.16100E+03   2.46300E+03  HDH001or30c08       
 HD   H      1   2.28800E+03   2.34100E+03  HDH001or30c09       
 HD   H      1   2.56900E+03   2.45400E+03  HDH001or30c10       
 HD   H      1   2.91800E+03   2.37700E+03  HDH001or30c11       
 HD   H      1   3.11400E+03   2.45300E+03  HDH001or30c12       
 HD   H      1   3.35100E+03   2.43900E+03  HDH001or30c13       
 HD   H      1   3.66400E+03   2.34400E+03  HDH001or30c14       
 HD   H      1   3.82200E+03   2.25600E+03  HDH001or30c15       
 HD   H      1   4.10500E+03   2.29400E+03  HDH001or30c16       
 HD   H      1   4.36800E+03   2.46900E+03  HDH001or30c17       
 HD   H      1   4.52100E+03   2.46400E+03  HDH001or30c18       
 HD   H      1   4.78400E+03   2.32100E+03  HDH001or30c19       
 HD   H      1   1.31000E+02   2.05100E+03  HDH001or31c00       
 HD   H      1   3.15000E+02   2.03900E+03  HDH001or31c01       
 HD   H      1   5.18000E+02   2.04600E+03  HDH001or31c02       
 HD   H      1   7.68000E+02   2.24200E+03  HDH001or31c03       
 HD   H      1   1.01500E+03   2.06400E+03  HDH001or31c04       
 HD   H      1   1.43900E+03   2.12300E+03  HDH001or31c05       
 HD   H      1   1.56500E+03   2.00000E+03  HDH001or31c06       
 HD   H      1   1.83200E+03   2.12100E+03  HDH001or31c07       
 HD   H      1   2.15400E+03   2.23700E+03  HDH001or31c08       
 HD   H      1   2.37600E+03   2.16100E+03  HDH001or31c09       
 HD   H      1   2.57500E+03   2.11600E+03  HDH001or31c10       
 HD   H      1   2.82300E+03   2.23300E+03  HDH001or31c11       
 HD   H      1   3.08700E+03   2.03300E+03  HDH001or31c12       
 HD   H      1   3.41500E+03   2.20600E+03  HDH001or31c13       
 HD   H      1   3.68700E+03   2.21400E+03  HDH001or31c14       
 HD   H      1   3.91100E+03   2.08800E+03  HDH001or31c15       
 HD   H      1   4.13500E+03   2.10300E+03  HDH001or31c16       
 HD   H      1   4.44200E+03   2.12100E+03  HDH001or31c17       
 HD   H      1   4.54000E+03   2.11400E+03  HDH001or31c18       
 HD   H      1   4.77200E+03   2.21300E+03  HDH001or31c19       
 HD   H      1   4.54000E+02   1.94000E+03  HDH001or32c01       
 HD   H      1   5.43000E+02   1.90500E+03  HDH001or32c02       
 HD   H      1   7.74000E+02   1.79000E+03  HDH001or32c03       
 HD   H      1   1.10300E+03   1.99100E+03  HDH001or32c04       
 HD   H      1   1.49300E+03   1.88900E+03  HDH001or32c05       
 HD   H      1   1.51000E+03   1.79900E+03  HDH001or32c06       
 HD   H      1   1.80000E+03   1.88000E+03  HDH001or32c07       
 HD   H      1   2.06100E+03   1.94800E+03  HDH001or32c08       
 HD   H      1   2.33600E+03   1.99000E+03  HDH001or32c09       
 HD   H      1   2.68300E+03   1.96400E+03  HDH001or32c10       
 HD   H      1   2.99200E+03   1.97600E+03  HDH001or32c11       
 HD   H      1   3.14600E+03   1.76400E+03  HDH001or32c12       
 HD   H      1   3.39200E+03   1.85500E+03  HDH001or32c13       
 HD   H      1   3.55800E+03   1.95200E+03  HDH001or32c14       
 HD   H      1   3.79000E+03   1.90100E+03  HDH001or32c15       
 HD   H      1   4.06400E+03   1.89600E+03  HDH001or32c16       
 HD   H      1   4.49100E+03   1.97500E+03  HDH001or32c17       
 HD   H      1   4.58200E+03   1.82600E+03  HDH001or32c18       
 HD   H      1   4.82200E+03   1.81700E+03  HDH001or32c19       
 HD   H      1   6.74000E+02   1.72700E+03  HDH001or33c02       
 HD   H      1   7.97000E+02   1.55500E+03  HDH001or33c03       
 HD   H      1   1.12400E+03   1.74600E+03  HDH001or33c04       
 HD   H      1   1.45700E+03   1.53400E+03  HDH001or33c05       
 HD   H      1   1.57900E+03   1.73400E+03  HDH001or33c06       
 HD   H      1   1.77900E+03   1.55200E+03  HDH001or33c07       
 HD   H      1   2.24700E+03   1.64500E+03  HDH001or33c08       
 HD   H      1   2.42200E+03   1.55300E+03  HDH001or33c09       
 HD   H      1   2.64600E+03   1.54200E+03  HDH001or33c10       
 HD   H      1   2.82500E+03   1.65100E+03  HDH001or33c11       
 HD   H      1   3.07800E+03   1.66300E+03  HDH001or33c12       
 HD   H      1   3.46600E+03   1.71600E+03  HDH001or33c13       
 HD   H      1   3.65400E+03   1.54700E+03  HDH001or33c14       
 HD   H      1   3.82900E+03   1.66500E+03  HDH001or33c15       
 HD   H      1   4.20800E+03   1.57600E+03  HDH001or33c16       
 HD   H      1   4.48300E+03   1.54700E+03  HDH001or33c17       
 HD   H      1   4.59100E+03   1.63100E+03  HDH001or33c18       
 HD   H      1   4.90700E+03   1.54000E+03  HDH001or33c19       
 HD   H      1   8.26000E+02   1.34900E+03  HDH001or34c03       
 HD   H      1   1.14600E+03   1.30900E+03  HDH001or34c04       
 HD   H      1   1.48400E+03   1.41100E+03  HDH001or34c05       
 HD   H      1   1.58200E+03   1.28600E+03  HDH001or34c06       
 HD   H      1   1.83600E+03   1.30700E+03  HDH001or34c07       
 HD   H      1   2.10600E+03   1.44500E+03  HDH001or34c08       
 HD   H      1   2.40500E+03   1.28800E+03  HDH001or34c09       
 HD   H      1   2.73800E+03   1.49300E+03  HDH001or34c10       
 HD   H      1   2.83500E+03   1.46600E+03  HDH001or34c11       
 HD   H      1   3.14800E+03   1.47000E+03  HDH001or34c12       
 HD   H      1   3.38800E+03   1.41600E+03  HDH001or34c13       
 HD   H      1   3.68600E+03   1.28300E+03  HDH001or34c14       
 HD   H      1   3.95700E+03   1.44700E+03  HDH001or34c15       
 HD   H      1   4.08200E+03   1.40000E+03  HDH001or34c16       
 HD   H      1   4.32900E+03   1.36700E+03  HDH001or34c17       
 HD   H      1   4.67200E+03   1.42000E+03  HDH001or34c18       
 HD   H      1   4.83200E+03   1.46100E+03  HDH001or34c19       
 HD   H      1   1.04400E+03   1.08900E+03  HDH001or35c04       
 HD   H      1   1.25400E+03   1.15800E+03  HDH001or35c05       
 HD   H      1   1.60900E+03   1.17100E+03  HDH001or35c06       
 HD   H      1   1.80300E+03   1.07100E+03  HDH001or35c07       
 HD   H      1   2.02800E+03   1.20800E+03  HDH001or35c08       
 HD   H      1   2.27100E+03   1.10200E+03  HDH001or35c09       
 HD   H      1   2.55000E+03   1.03900E+03  HDH001or35c10       
 HD   H      1   2.78400E+03   1.00900E+03  HDH001or35c11       
 HD   H      1   3.15000E+03   1.04600E+03  HDH001or35c12       
 HD   H      1   3.38500E+03   1.07300E+03  HDH001or35c13       
 HD   H      1   3.55900E+03   1.04600E+03  HDH001or35c14       
 HD   H      1   3.92600E+03   1.20900E+03  HDH001or35c15       
 HD   H      1   4.12500E+03   1.00800E+03  HDH001or35c16       
 HD   H      1   4.36000E+03   1.10900E+03  HDH001or35c17       
 HD   H      1   4.51600E+03   1.21800E+03  HDH001or35c18       
 HD   H      1   1.22300E+03   7.89000E+02  HDH001or36c04       
 HD   H      1   1.26200E+03   8.26000E+02  HDH001or36c05       
 HD   H      1   1.68100E+03   9.43000E+02  HDH001or36c06       
 HD   H      1   1.81400E+03   7.76000E+02  HDH001or36c07       
 HD   H      1   2.12600E+03   8.31000E+02  HDH001or36c08       
 HD   H      1   2.49000E+03   9.08000E+02  HDH001or36c09       
 HD   H      1   2.50800E+03   8.95000E+02  HDH001or36c10       
 HD   H      1   2.96200E+03   8.73000E+02  HDH001or36c11       
 HD   H      1   3.01000E+03   9.16000E+02  HDH001or36c12       
 HD   H      1   3.31100E+03   9.26000E+02  HDH001or36c13       
 HD   H      1   3.57500E+03   9.76000E+02  HDH001or36c14       
 HD   H      1   3.89200E+03   8.61000E+02  HDH001or36c15       
 HD   H      1   4.21500E+03   8.99000E+02  HDH001or36c16       
 HD   H      1   4.29500E+03   8.68000E+02  HDH001or36c17       
 HD   H      1   4.74200E+03   8.62000E+02  HDH001or36c18       
 HD   H      1   1.32600E+03   7.30000E+02  HDH001or37c05       
 HD   H      1   1.53500E+03   6.80000E+02  HDH001or37c06       
 HD   H      1   1.80400E+03   7.26000E+02  HDH001or37c07       
 HD   H      1   2.00900E+03   7.09000E+02  HDH001or37c08       
 HD   H      1   2.37100E+03   6.47000E+02  HDH001or37c09       
 HD   H      1   2.64000E+03   5.83000E+02  HDH001or37c10       
 HD   H      1   2.92100E+03   6.58000E+02  HDH001or37c11       
 HD   H      1   3.10600E+03   5.34000E+02  HDH001or37c12       
 HD   H      1   3.44900E+03   5.69000E+02  HDH001or37c13       
 HD   H      1   3.66200E+03   5.74000E+02  HDH001or37c14       
 HD   H      1   3.89700E+03   7.10000E+02  HDH001or37c15       
 HD   H      1   4.05900E+03   7.34000E+02  HDH001or37c16       
 HD   H      1   4.34200E+03   7.32000E+02  HDH001or37c17       
 HD   H      1   1.45700E+03   3.89000E+02  HDH001or38c05       
 HD   H      1   1.72300E+03   2.94000E+02  HDH001or38c06       
 HD   H      1   1.89300E+03   4.26000E+02  HDH001or38c07       
 HD   H      1   2.23300E+03   4.02000E+02  HDH001or38c08       
 HD   H      1   2.48900E+03   4.87000E+02  HDH001or38c09       
 HD   H      1   2.62000E+03   3.64000E+02  HDH001or38c10       
 HD   H      1   2.94500E+03   2.60000E+02  HDH001or38c11       
 HD   H      1   3.04200E+03   4.18000E+02  HDH001or38c12       
 HD   H      1   3.48700E+03   3.87000E+02  HDH001or38c13       
 HD   H      1   3.53400E+03   4.79000E+02  HDH001or38c14       
 HD   H      1   3.94400E+03   3.07000E+02  HDH001or38c15       
 HD   H      1   4.09800E+03   3.07000E+02  HDH001or38c16       
 HD   H      1   1.25800E+03   1.74000E+02  HDH001or39c05       
 HD   H      1   1.73600E+03   2.06000E+02  HDH001or39c06       
 HD   H      1   1.95400E+03   5.20000E+01  HDH001or39c07       
 HD   H      1   2.22500E+03   3.00000E+00  HDH001or39c08       
 HD   H      1   2.25000E+03   1.41000E+02  HDH001or39c09       
 HD   H      1   2.66600E+03   6.90000E+01  HDH001or39c10       
 HD   H      1   2.99400E+03   1.28000E+02  HDH001or39c11       
 HD   H      1   3.04700E+03   2.13000E+02  HDH001or39c12       
 HD   H      1   3.44800E+03   2.49000E+02  HDH001or39c13       
 HD   H      1   3.61400E+03   1.97000E+02  HDH001or39c14       
1
                            STRESS PERIOD NO.    1, LENGTH =   1.000000    
                            -----------------------------------------------

                              NUMBER OF TIME STEPS =     1

                               MULTIPLIER FOR DELT =     1.000

                            INITIAL TIME STEP SIZE =   1.000000    

 WELL NO.  LAYER   ROW   COL   STRESS RATE         
 --------------------------------------------------
      1      1      9     16      -708.5    
      2      1     11     13      -354.2    
      3      1     20     14      -337.0    
      4      1     26     10      -71.71    
      5      1     29      6      -62.21    
      6      1     34     12      -371.5    

      6 WELLS

 REACH NO.  LAYER   ROW   COL     STAGE      CONDUCTANCE     BOTTOM EL.         
 -------------------------------------------------------------------------------
      1      1      1     15       20.10           2263.           20.00    
      2      1      2     15       19.87           5256.           19.75    
      3      1      3     15       19.65           5124.           19.50    
      4      1      4     15       19.42           6477.           19.25    
      5      1      5     15       19.19           3943.           19.00    
      6      1      6     15       18.97           1470.           18.75    
      7      1      7     15       18.74           1845.           18.50    
      8      1      8     15       18.51           3249.           18.25    
      9      1      9     15       18.28           5541.           18.00    
     10      1     10     15       19.06           5714.           17.75    
     11      1     11     15       17.83           5280.           17.50    
     12      1     12     15       17.60           6298.           17.25    
     13      1     13     15       17.38           3433.           17.00    
     14      1     14     15       17.15           4032.           16.75    
     15      1     15     15       16.92           8097.           16.50    
     16      1     16     15       16.70           6208.           16.25    
     17      1     17     15       16.47           4793.           16.00    
     18      1     18     15       16.24           7944.           15.75    
     19      1     19     15       16.02           8896.           15.50    
     20      1     20     15       15.79           5492.           15.25    
     21      1     21     15       15.56           5462.           15.00    
     22      1     22     15       15.33           5638.           14.75    
     23      1     23     15       15.11           7078.           14.50    
     24      1     24     15       14.88           6468.           14.25    
     25      1     25     15       14.65           3842.           14.00    
     26      1     26     15       14.43           2650.           13.75    
     27      1     27     15       14.20           1569.           13.50    
     28      1     28     15       13.97           2319.           13.25    
     29      1     29     15       13.75           4408.           13.00    
     30      1     30     15       13.52           3509.           12.75    
     31      1     31     15       13.29           3552.           12.50    
     32      1     32     15       13.07           3835.           12.25    
     33      1     33     15       12.84           5131.           12.00    
     34      1     34     15       12.61           5296.           11.75    
     35      1     35     15       12.38           3234.           11.50    
     36      1     36     15       12.16           3494.           11.25    
     37      1     37     15       11.93           5748.           11.00    
     38      1     38     15       11.70           7602.           10.75    
     39      1     39     15       11.48           7388.           10.50    
     40      1     40     15       11.25           6599.           10.25    

     40 RIVER REACHES



                           RECHARGE
 READING ON UNIT   19 WITH FORMAT: (FREE)              

 SOLVING FOR HEAD 

 OUTPUT CONTROL FOR STRESS PERIOD    1   TIME STEP    1
    SAVE HEAD FOR ALL LAYERS
    SAVE BUDGET
 UBDSV2 SAVING "   CONSTANT HEAD" ON UNIT  53 AT TIME STEP  1, STRESS PERIOD   1
 UBDSV1 SAVING "FLOW RIGHT FACE " ON UNIT  53 AT TIME STEP  1, STRESS PERIOD   1
 UBDSV1 SAVING "FLOW FRONT FACE " ON UNIT  53 AT TIME STEP  1, STRESS PERIOD   1

 HEAD WILL BE SAVED ON UNIT   51 AT END OF TIME STEP    1, STRESS PERIOD    1
1
  VOLUMETRIC BUDGET FOR ENTIRE MODEL AT END OF TIME STEP    1, STRESS PERIOD   1
  ------------------------------------------------------------------------------

     CUMULATIVE VOLUMES      L**3       RATES FOR THIS TIME STEP      L**3/T
     ------------------                 ------------------------

           IN:                                      IN:
           ---                                      ---
             STORAGE =           0.0000               STORAGE =           0.0000
       CONSTANT HEAD =           0.0000         CONSTANT HEAD =           0.0000
               WELLS =           0.0000                 WELLS =           0.0000
       RIVER LEAKAGE =         759.7867         RIVER LEAKAGE =         759.7867
            RECHARGE =        6004.7998              RECHARGE =        6004.7998

            TOTAL IN =        6764.5864              TOTAL IN =        6764.5864

          OUT:                                     OUT:
          ----                                     ----
             STORAGE =           0.0000               STORAGE =           0.0000
       CONSTANT HEAD =         291.4647         CONSTANT HEAD =         291.4647
               WELLS =        1905.1200                 WELLS =        1905.1200
       RIVER LEAKAGE =        4568.0259         RIVER LEAKAGE =        4568.0259
            RECHARGE =           0.0000              RECHARGE =           0.0000

           TOTAL OUT =        6764.6104             TOTAL OUT =        6764.6104

            IN - OUT =      -2.3926E-02              IN - OUT =      -2.3926E-02

 PERCENT DISCREPANCY =          -0.00     PERCENT DISCREPANCY =          -0.00






         TIME SUMMARY AT END OF TIME STEP    1 IN STRESS PERIOD    1
                    SECONDS     MINUTES      HOURS       DAYS        YEARS
                    -----------------------------------------------------------
   TIME STEP LENGTH  86400.      1440.0      24.000      1.0000     2.73785E-03
 STRESS PERIOD TIME  86400.      1440.0      24.000      1.0000     2.73785E-03
         TOTAL TIME  86400.      1440.0      24.000      1.0000     2.73785E-03
1
 A TOTAL OF 705 HYDROGRAPH POINTS HAVE BEEN PREPARED.
1
                            STRESS PERIOD NO.    2, LENGTH =   1825.000    
                            -----------------------------------------------

                              NUMBER OF TIME STEPS =     1

                               MULTIPLIER FOR DELT =     1.000

                            INITIAL TIME STEP SIZE =   1825.000    

 WELL NO.  LAYER   ROW   COL   STRESS RATE         
 --------------------------------------------------
      1      1      9     16      -885.6    
      2      1     11     13      -442.8    
      3      1     20     14      -421.2    
      4      1     26     10      -89.64    
      5      1     29      6      -77.76    
      6      1     34     12      -464.4    

      6 WELLS

 REACH NO.  LAYER   ROW   COL     STAGE      CONDUCTANCE     BOTTOM EL.         
 -------------------------------------------------------------------------------
      1      1      1     15       20.10           2263.           20.00    
      2      1      2     15       19.87           5256.           19.75    
      3      1      3     15       19.65           5124.           19.50    
      4      1      4     15       19.42           6477.           19.25    
      5      1      5     15       19.19           3943.           19.00    
      6      1      6     15       18.97           1470.           18.75    
      7      1      7     15       18.74           1845.           18.50    
      8      1      8     15       18.51           3249.           18.25    
      9      1      9     15       18.28           5541.           18.00    
     10      1     10     15       19.06           5714.           17.75    
     11      1     11     15       17.83           5280.           17.50    
     12      1     12     15       17.60           6298.           17.25    
     13      1     13     15       17.38           3433.           17.00    
     14      1     14     15       17.15           4032.           16.75    
     15      1     15     15       16.92           8097.           16.50    
     16      1     16     15       16.70           6208.           16.25    
     17      1     17     15       16.47           4793.           16.00    
     18      1     18     15       16.24           7944.           15.75    
     19      1     19     15       16.02           8896.           15.50    
     20      1     20     15       15.79           5492.           15.25    
     21      1     21     15       15.56           5462.           15.00    
     22      1     22     15       15.33           5638.           14.75    
     23      1     23     15       15.11           7078.           14.50    
     24      1     24     15       14.88           6468.           14.25    
     25      1     25     15       14.65           3842.           14.00    
     26      1     26     15       14.43           2650.           13.75    
     27      1     27     15       14.20           1569.           13.50    
     28      1     28     15       13.97           2319.           13.25    
     29      1     29     15       13.75           4408.           13.00    
     30      1     30     15       13.52           3509.           12.75    
     31      1     31     15       13.29           3552.           12.50    
     32      1     32     15       13.07           3835.           12.25    
     33      1     33     15       12.84           5131.           12.00    
     34      1     34     15       12.61           5296.           11.75    
     35      1     35     15       12.38           3234.           11.50    
     36      1     36     15       12.16           3494.           11.25    
     37      1     37     15       11.93           5748.           11.00    
     38      1     38     15       11.70           7602.           10.75    
     39      1     39     15       11.48           7388.           10.50    
     40      1     40     15       11.25           6599.           10.25    

     40 RIVER REACHES



                           RECHARGE
 READING ON UNIT   19 WITH FORMAT: (FREE)              

 SOLVING FOR HEAD 

 OUTPUT CONTROL FOR STRESS PERIOD    2   TIME STEP    1
    SAVE HEAD FOR ALL LAYERS
    SAVE BUDGET
 UBDSV1 SAVING "         STORAGE" ON UNIT  53 AT TIME STEP  1, STRESS PERIOD   2
 UBDSV2 SAVING "   CONSTANT HEAD" ON UNIT  53 AT TIME STEP  1, STRESS PERIOD   2
 UBDSV1 SAVING "FLOW RIGHT FACE " ON UNIT  53 AT TIME STEP  1, STRESS PERIOD   2
 UBDSV1 SAVING "FLOW FRONT FACE " ON UNIT  53 AT TIME STEP  1, STRESS PERIOD   2

 HEAD WILL BE SAVED ON UNIT   51 AT END OF TIME STEP    1, STRESS PERIOD    2
1
  VOLUMETRIC BUDGET FOR ENTIRE MODEL AT END OF TIME STEP    1, STRESS PERIOD   2
  ------------------------------------------------------------------------------

     CUMULATIVE VOLUMES      L**3       RATES FOR THIS TIME STEP      L**3/T
     ------------------                 ------------------------

           IN:                                      IN:
           ---                                      ---
             STORAGE =       13925.2656               STORAGE =           7.6303
       CONSTANT HEAD =      213513.0469         CONSTANT HEAD =         116.9935
               WELLS =           0.0000                 WELLS =           0.0000
       RIVER LEAKAGE =     2184445.2500         RIVER LEAKAGE =        1196.5400
            RECHARGE =     5485385.0000              RECHARGE =        3002.3999

            TOTAL IN =     7897268.5000              TOTAL IN =        4323.5635

          OUT:                                     OUT:
          ----                                     ----
             STORAGE =           0.0000               STORAGE =           0.0000
       CONSTANT HEAD =      136759.5781         CONSTANT HEAD =          74.7770
               WELLS =     4347960.0000                 WELLS =        2381.3999
       RIVER LEAKAGE =     3412551.0000         RIVER LEAKAGE =        1867.3879
            RECHARGE =           0.0000              RECHARGE =           0.0000

           TOTAL OUT =     7897270.5000             TOTAL OUT =        4323.5649

            IN - OUT =          -2.0000              IN - OUT =      -1.4648E-03

 PERCENT DISCREPANCY =          -0.00     PERCENT DISCREPANCY =          -0.00






         TIME SUMMARY AT END OF TIME STEP    1 IN STRESS PERIOD    2
                    SECONDS     MINUTES      HOURS       DAYS        YEARS
                    -----------------------------------------------------------
   TIME STEP LENGTH 1.57680E+08 2.62800E+06  43800.      1825.0      4.9966    
 STRESS PERIOD TIME 1.57680E+08 2.62800E+06  43800.      1825.0      4.9966    
         TOTAL TIME 1.57766E+08 2.62944E+06  43824.      1826.0      4.9993    
1
1
                            STRESS PERIOD NO.    3, LENGTH =   1.000000    
                            -----------------------------------------------

                              NUMBER OF TIME STEPS =     1

                               MULTIPLIER FOR DELT =     1.000

                            INITIAL TIME STEP SIZE =   1.000000    

 WELL NO.  LAYER   ROW   COL   STRESS RATE         
 --------------------------------------------------
      1      1      9     16      -885.6    
      2      1     11     13      -442.8    
      3      1     20     14      -421.2    
      4      1     26     10      -89.64    
      5      1     29      6      -77.76    
      6      1     34     12      -464.4    

      6 WELLS

 REACH NO.  LAYER   ROW   COL     STAGE      CONDUCTANCE     BOTTOM EL.         
 -------------------------------------------------------------------------------
      1      1      1     15       20.10           2263.           20.00    
      2      1      2     15       19.87           5256.           19.75    
      3      1      3     15       19.65           5124.           19.50    
      4      1      4     15       19.42           6477.           19.25    
      5      1      5     15       19.19           3943.           19.00    
      6      1      6     15       18.97           1470.           18.75    
      7      1      7     15       18.74           1845.           18.50    
      8      1      8     15       18.51           3249.           18.25    
      9      1      9     15       18.28           5541.           18.00    
     10      1     10     15       19.06           5714.           17.75    
     11      1     11     15       17.83           5280.           17.50    
     12      1     12     15       17.60           6298.           17.25    
     13      1     13     15       17.38           3433.           17.00    
     14      1     14     15       17.15           4032.           16.75    
     15      1     15     15       16.92           8097.           16.50    
     16      1     16     15       16.70           6208.           16.25    
     17      1     17     15       16.47           4793.           16.00    
     18      1     18     15       16.24           7944.           15.75    
     19      1     19     15       16.02           8896.           15.50    
     20      1     20     15       15.79           5492.           15.25    
     21      1     21     15       15.56           5462.           15.00    
     22      1     22     15       15.33           5638.           14.75    
     23      1     23     15       15.11           7078.           14.50    
     24      1     24     15       14.88           6468.           14.25    
     25      1     25     15       14.65           3842.           14.00    
     26      1     26     15       14.43           2650.           13.75    
     27      1     27     15       14.20           1569.           13.50    
     28      1     28     15       13.97           2319.           13.25    
     29      1     29     15       13.75           4408.           13.00    
     30      1     30     15       13.52           3509.           12.75    
     31      1     31     15       13.29           3552.           12.50    
     32      1     32     15       13.07           3835.           12.25    
     33      1     33     15       12.84           5131.           12.00    
     34      1     34     15       12.61           5296.           11.75    
     35      1     35     15       12.38           3234.           11.50    
     36      1     36     15       12.16           3494.           11.25    
     37      1     37     15       11.93           5748.           11.00    
     38      1     38     15       11.70           7602.           10.75    
     39      1     39     15       11.48           7388.           10.50    
     40      1     40     15       11.25           6599.           10.25    

     40 RIVER REACHES



                           RECHARGE
 READING ON UNIT   19 WITH FORMAT: (FREE)              

 SOLVING FOR HEAD 

 OUTPUT CONTROL FOR STRESS PERIOD    3   TIME STEP    1
    SAVE HEAD FOR ALL LAYERS
    SAVE BUDGET
 UBDSV2 SAVING "   CONSTANT HEAD" ON UNIT  53 AT TIME STEP  1, STRESS PERIOD   3
 UBDSV1 SAVING "FLOW RIGHT FACE " ON UNIT  53 AT TIME STEP  1, STRESS PERIOD   3
 UBDSV1 SAVING "FLOW FRONT FACE " ON UNIT  53 AT TIME STEP  1, STRESS PERIOD   3

 HEAD WILL BE SAVED ON UNIT   51 AT END OF TIME STEP    1, STRESS PERIOD    3
1
  VOLUMETRIC BUDGET FOR ENTIRE MODEL AT END OF TIME STEP    1, STRESS PERIOD   3
  ------------------------------------------------------------------------------

     CUMULATIVE VOLUMES      L**3       RATES FOR THIS TIME STEP      L**3/T
     ------------------                 ------------------------

           IN:                                      IN:
           ---                                      ---
             STORAGE =       13925.2656               STORAGE =           0.0000
       CONSTANT HEAD =      213630.9219         CONSTANT HEAD =         117.8754
               WELLS =           0.0000                 WELLS =           0.0000
       RIVER LEAKAGE =     2185643.7500         RIVER LEAKAGE =        1198.3966
            RECHARGE =     5488387.5000              RECHARGE =        3002.3999

            TOTAL IN =     7901587.5000              TOTAL IN =        4318.6719

          OUT:                                     OUT:
          ----                                     ----
             STORAGE =           0.0000               STORAGE =           0.0000
       CONSTANT HEAD =      136834.0625         CONSTANT HEAD =          74.4803
               WELLS =     4350341.5000                 WELLS =        2381.3999
       RIVER LEAKAGE =     3414413.7500         RIVER LEAKAGE =        1862.7881
            RECHARGE =           0.0000              RECHARGE =           0.0000

           TOTAL OUT =     7901589.0000             TOTAL OUT =        4318.6680

            IN - OUT =          -1.5000              IN - OUT =       3.9062E-03

 PERCENT DISCREPANCY =          -0.00     PERCENT DISCREPANCY =           0.00






         TIME SUMMARY AT END OF TIME STEP    1 IN STRESS PERIOD    3
                    SECONDS     MINUTES      HOURS       DAYS        YEARS
                    -----------------------------------------------------------
   TIME STEP LENGTH  86400.      1440.0      24.000      1.0000     2.73785E-03
 STRESS PERIOD TIME  86400.      1440.0      24.000      1.0000     2.73785E-03
         TOTAL TIME 1.57853E+08 2.63088E+06  43848.      1827.0      5.0021    
1

 Run end date and time (yyyy/mm/dd hh:mm:ss): 2016/02/01 14:32:59
 Elapsed run time:  0.015 Seconds

