                                  MODFLOW-2005     
      U.S. GEOLOGICAL SURVEY MODULAR FINITE-DIFFERENCE GROUND-WATER FLOW MODEL
                            VERSION 1.12.00 2/3/2017

 LIST FILE: UZFtest2.lst
                         UNIT    9

 OPENING UZFtest2.ba6
 FILE TYPE:BAS6   UNIT   75   STATUS:OLD    
 FORMAT:FORMATTED              ACCESS:SEQUENTIAL          

 OPENING UZFtest2.lpf
 FILE TYPE:LPF   UNIT    7   STATUS:OLD    
 FORMAT:FORMATTED              ACCESS:SEQUENTIAL          

 OPENING UZFtest2.dis
 FILE TYPE:DIS   UNIT    8   STATUS:OLD    
 FORMAT:FORMATTED              ACCESS:SEQUENTIAL          

 OPENING UZFtest2.sip
 FILE TYPE:SIP   UNIT   13   STATUS:OLD    
 FORMAT:FORMATTED              ACCESS:SEQUENTIAL          

 OPENING UZFtest2.oc
 FILE TYPE:OC   UNIT   14   STATUS:OLD    
 FORMAT:FORMATTED              ACCESS:SEQUENTIAL          

 OPENING UZFtest2.sfr
 FILE TYPE:SFR   UNIT   15   STATUS:OLD    
 FORMAT:FORMATTED              ACCESS:SEQUENTIAL          

 OPENING UZFtest2.wel
 FILE TYPE:WEL   UNIT   16   STATUS:OLD    
 FORMAT:FORMATTED              ACCESS:SEQUENTIAL          

 OPENING UZFtest2.ghb
 FILE TYPE:GHB   UNIT   17   STATUS:OLD    
 FORMAT:FORMATTED              ACCESS:SEQUENTIAL          

 OPENING UZFtest2.uzf
 FILE TYPE:UZF   UNIT   19   STATUS:OLD    
 FORMAT:FORMATTED              ACCESS:SEQUENTIAL          

 OPENING UZFtest2.gag
 FILE TYPE:GAGE   UNIT   32   STATUS:OLD    
 FORMAT:FORMATTED              ACCESS:SEQUENTIAL          

 OPENING UZFtest2hd.out
 FILE TYPE:DATA   UNIT   58   STATUS:UNKNOWN
 FORMAT:FORMATTED              ACCESS:SEQUENTIAL          

 OPENING UZFtest2.uzfot
 FILE TYPE:DATA(BINARY)   UNIT   61   STATUS:UNKNOWN
 FORMAT:BINARY                 ACCESS:SEQUENTIAL          

 OPENING UZFtest2.uzf1
 FILE TYPE:DATA   UNIT   65   STATUS:UNKNOWN
 FORMAT:FORMATTED              ACCESS:SEQUENTIAL          

 OPENING UZFtest2.uzf2
 FILE TYPE:DATA   UNIT   66   STATUS:UNKNOWN
 FORMAT:FORMATTED              ACCESS:SEQUENTIAL          

 OPENING UZFtest2.uzf3
 FILE TYPE:DATA   UNIT   67   STATUS:UNKNOWN
 FORMAT:FORMATTED              ACCESS:SEQUENTIAL          

 OPENING UZFtest2.uzf4
 FILE TYPE:DATA   UNIT   68   STATUS:UNKNOWN
 FORMAT:FORMATTED              ACCESS:SEQUENTIAL          

 OPENING UZFtest2.flw
 FILE TYPE:DATA   UNIT   81   STATUS:UNKNOWN
 FORMAT:FORMATTED              ACCESS:SEQUENTIAL          

 OPENING UZFtest2.sg1
 FILE TYPE:DATA   UNIT   83   STATUS:UNKNOWN
 FORMAT:FORMATTED              ACCESS:SEQUENTIAL          

 OPENING UZFtest2.sg2
 FILE TYPE:DATA   UNIT   84   STATUS:UNKNOWN
 FORMAT:FORMATTED              ACCESS:SEQUENTIAL          

 OPENING UZFtest2.sg3
 FILE TYPE:DATA   UNIT   85   STATUS:UNKNOWN
 FORMAT:FORMATTED              ACCESS:SEQUENTIAL          

 OPENING UZFtest2.sg4
 FILE TYPE:DATA   UNIT   86   STATUS:UNKNOWN
 FORMAT:FORMATTED              ACCESS:SEQUENTIAL          

 OPENING UZFtest2.sg5
 FILE TYPE:DATA   UNIT   87   STATUS:UNKNOWN
 FORMAT:FORMATTED              ACCESS:SEQUENTIAL          

 OPENING UZFtest2.sg6
 FILE TYPE:DATA   UNIT   88   STATUS:UNKNOWN
 FORMAT:FORMATTED              ACCESS:SEQUENTIAL          

 OPENING UZFtest2.sg7
 FILE TYPE:DATA   UNIT   89   STATUS:UNKNOWN
 FORMAT:FORMATTED              ACCESS:SEQUENTIAL          

 OPENING UZFtest2.sg8
 FILE TYPE:DATA   UNIT   90   STATUS:UNKNOWN
 FORMAT:FORMATTED              ACCESS:SEQUENTIAL          

 OPENING UZFtest2dv.sg9
 FILE TYPE:DATA   UNIT   91   STATUS:UNKNOWN
 FORMAT:FORMATTED              ACCESS:SEQUENTIAL          

 BAS -- BASIC PACKAGE, VERSION 7, 5/2/2005 INPUT READ FROM UNIT   75
 
 MODFLOW was compiled using mixed precision
 Precision of REAL variables:           6
 Precision of DOUBLE PRECISION variables:          15

 DISCRETIZATION INPUT DATA READ FROM UNIT    8
 #Test problem 2-- Discretization input
 #Example problem using the UZF1 Package
    1 LAYERS        15 ROWS        10 COLUMNS
   12 STRESS PERIOD(S) IN SIMULATION
 MODEL TIME UNIT IS SECONDS
 MODEL LENGTH UNIT IS FEET
  Confining bed flag for each layer:
   0

                     DELR =   5000.00    

                     DELC =   5000.00    



           TOP ELEVATION OF LAYER 1
 READING ON UNIT    8 WITH FORMAT: (10F7.0)            

            1           2           3           4           5           6           7           8           9          10
 ........................................................................................................................
   1    1105.       1105.       0.000       0.000       0.000       0.000       0.000       0.000       0.000       0.000    
   2    1105.       1095.       1105.       0.000       0.000       1100.       1100.       1110.       0.000       0.000    
   3    0.000       1100.       1085.       1080.       1078.       1076.       1073.       1090.       0.000       0.000    
   4    1110.       1100.       1090.       1085.       1076.       1080.       1080.       1070.       1100.       0.000    
   5    1110.       1100.       1085.       1080.       1078.       1074.       1077.       1066.       1075.       1080.    
   6    1105.       1095.       1080.       1077.       1073.       1069.       1070.       1063.       1085.       1095.    
   7    1105.       1090.       1075.       1072.       1070.       1065.       1065.       1069.       1090.       0.000    
   8    0.000       1080.       1070.       1068.       1063.       1060.       1063.       1067.       1090.       0.000    
   9    0.000       1075.       1065.       1062.       1058.       1052.       1055.       1065.       1090.       0.000    
  10    0.000       1070.       1060.       1055.       1046.       1046.       1044.       1060.       1088.       1100.    
  11    0.000       1055.       1050.       1045.       1041.       1042.       1040.       1050.       1075.       0.000    
  12    1027.       1028.       1028.       1032.       1032.       1033.       1032.       1040.       1060.       0.000    
  13    997.0       1004.       1008.       1014.       1020.       1027.       1032.       1038.       1050.       0.000    
  14    0.000       1030.       1040.       1045.       1050.       1050.       1050.       1050.       1044.       0.000    
  15    0.000       0.000       1080.       1080.       1080.       1080.       0.000       0.000       0.000       0.000    



             MODEL LAYER BOTTOM EL. FOR LAYER   1
 READING ON UNIT    8 WITH FORMAT: (10F7.0)            

            1           2           3           4           5           6           7           8           9          10
 ........................................................................................................................
   1    1000.       1000.       0.000       0.000       0.000       0.000       0.000       0.000       0.000       0.000    
   2    1000.       900.0       900.0       0.000       0.000       950.0       950.0       950.0       0.000       0.000    
   3    0.000       850.0       670.0       680.0       680.0       770.0       770.0       890.0       0.000       0.000    
   4    925.0       850.0       650.0       650.0       650.0       680.0       740.0       850.0       950.0       0.000    
   5    925.0       800.0       650.0       600.0       600.0       600.0       650.0       720.0       850.0       950.0    
   6    925.0       800.0       650.0       600.0       550.0       600.0       650.0       720.0       850.0       970.0    
   7    925.0       800.0       650.0       600.0       550.0       600.0       650.0       720.0       950.0       0.000    
   8    0.000       850.0       700.0       650.0       570.0       600.0       700.0       850.0       950.0       0.000    
   9    0.000       850.0       700.0       650.0       540.0       580.0       700.0       850.0       950.0       0.000    
  10    0.000       850.0       700.0       630.0       530.0       580.0       650.0       800.0       900.0       950.0    
  11    0.000       850.0       700.0       620.0       580.0       620.0       700.0       800.0       900.0       0.000    
  12    900.0       830.0       710.0       640.0       600.0       650.0       700.0       800.0       900.0       0.000    
  13    900.0       810.0       750.0       700.0       650.0       700.0       750.0       800.0       900.0       0.000    
  14    0.000       950.0       850.0       850.0       850.0       850.0       850.0       850.0       850.0       0.000    
  15    0.000       0.000       950.0       950.0       950.0       950.0       0.000       0.000       0.000       0.000    


 STRESS PERIOD     LENGTH       TIME STEPS     MULTIPLIER FOR DELT    SS FLAG
 ----------------------------------------------------------------------------
        1         2628000.          1                    1.000         SS
        2         2628000.         15                    1.100         TR
        3         2628000.         15                    1.100         TR
        4         2628000.         15                    1.100         TR
        5         2628000.         15                    1.100         TR
        6         2628000.         15                    1.100         TR
        7         2628000.         15                    1.100         TR
        8         2628000.         15                    1.100         TR
        9         2628000.         15                    1.100         TR
       10         2628000.         15                    1.100         TR
       11         2628000.         15                    1.100         TR
       12         2628000.         15                    1.100         TR

 COMBINED STEADY-STATE AND TRANSIENT SIMULATION



 
 #Test Simulation 2-- Example problem using the UZF1 Package                     
 #Modified from example Problem 1 of SFR1 documentation report                   
 THE FREE FORMAT OPTION HAS BEEN SELECTED



                     BOUNDARY ARRAY FOR LAYER   1
 READING ON UNIT   75 WITH FORMAT: (20I4)              

                1           2           3           4           5           6           7           8           9          10
 ............................................................................................................................
   1            1           1           0           0           0           0           0           0           0           0
   2            1           1           1           0           0           1           1           1           0           0
   3            0           1           1           1           1           1           1           1           0           0
   4            1           1           1           1           1           1           1           1           1           0
   5            1           1           1           1           1           1           1           1           1           1
   6            1           1           1           1           1           1           1           1           1           1
   7            1           1           1           1           1           1           1           1           1           0
   8            0           1           1           1           1           1           1           1           1           0
   9            0           1           1           1           1           1           1           1           1           0
  10            0           1           1           1           1           1           1           1           1           1
  11            0           1           1           1           1           1           1           1           1           0
  12            1           1           1           1           1           1           1           1           1           0
  13            1           1           1           1           1           1           1           1           1           0
  14            0           1           1           1           1           1           1           1           1           0
  15            0           0           1           1           1           1           0           0           0           0

 AQUIFER HEAD WILL BE SET TO   6999.0     AT ALL NO-FLOW NODES (IBOUND=0).



                       INITIAL HEAD FOR LAYER   1
 READING ON UNIT   75 WITH FORMAT: (10F8.0)            

            1           2           3           4           5           6           7           8           9          10
 ........................................................................................................................
   1    1093.       1089.       6999.       6999.       6999.       6999.       6999.       6999.       6999.       6999.    
   2    1090.       1087.       1081.       6999.       6999.       1072.       1071.       1071.       6999.       6999.    
   3    6999.       1079.       1078.       1074.       1072.       1071.       1069.       1068.       6999.       6999.    
   4    1069.       1071.       1070.       1067.       1065.       1064.       1064.       1066.       1066.       6999.    
   5    1065.       1064.       1063.       1062.       1061.       1061.       1060.       1062.       1066.       1068.    
   6    1060.       1058.       1057.       1056.       1056.       1057.       1057.       1059.       1062.       1066.    
   7    1056.       1053.       1052.       1051.       1051.       1052.       1053.       1055.       1056.       6999.    
   8    6999.       1046.       1046.       1046.       1046.       1046.       1048.       1050.       1050.       6999.    
   9    6999.       1039.       1039.       1039.       1040.       1041.       1042.       1043.       1044.       6999.    
  10    6999.       1031.       1032.       1033.       1034.       1035.       1037.       1038.       1039.       1042.    
  11    6999.       1021.       1023.       1027.       1029.       1030.       1032.       1034.       1036.       6999.    
  12    1001.       1009.       1015.       1020.       1023.       1026.       1029.       1030.       1034.       6999.    
  13    994.5      1000.0       1007.       1013.       1019.       1024.       1029.       1034.       1036.       6999.    
  14    6999.       1004.       1009.       1014.       1019.       1024.       1029.       1035.       1039.       6999.    
  15    6999.       6999.       1012.       1015.       1019.       1022.       6999.       6999.       6999.       6999.    

 OUTPUT CONTROL IS SPECIFIED ONLY AT TIME STEPS FOR WHICH OUTPUT IS DESIRED
 HEADS WILL BE SAVED WITH FORMAT: (10F10.3)           
 SAVED HEADS WILL BE LABELED
 HEAD PRINT FORMAT CODE IS   4    DRAWDOWN PRINT FORMAT CODE IS   0
 HEADS WILL BE SAVED ON UNIT   58    DRAWDOWNS WILL BE SAVED ON UNIT    0

 LPF -- LAYER-PROPERTY FLOW PACKAGE, VERSION 7, 5/2/2005
         INPUT READ FROM UNIT    7
 #Layer-Property Flow Package input for test simulation 2
 HEAD AT CELLS THAT CONVERT TO DRY=   0.0000    
 No named parameters

   LAYER FLAGS:
 LAYER       LAYTYP        LAYAVG         CHANI        LAYVKA        LAYWET
 ---------------------------------------------------------------------------
    1             1             0     1.000E+00             0             0

   INTERPRETATION OF LAYER FLAGS:
                        INTERBLOCK     HORIZONTAL    DATA IN
         LAYER TYPE   TRANSMISSIVITY   ANISOTROPY   ARRAY VKA   WETTABILITY
 LAYER      (LAYTYP)      (LAYAVG)       (CHANI)      (LAYVKA)      (LAYWET)
 ---------------------------------------------------------------------------
    1   CONVERTIBLE      HARMONIC     1.000E+00    VERTICAL K  NON-WETTABLE

 WETTING CAPABILITY IS NOT ACTIVE IN ANY LAYER



              HYD. COND. ALONG ROWS FOR LAYER   1
 READING ON UNIT    7 WITH FORMAT: (10F5.0)            

            1           2           3           4           5           6           7           8           9          10
 ........................................................................................................................
   1   2.0000E-03  2.0000E-03   0.000       0.000       0.000       0.000       0.000       0.000       0.000       0.000    
   2   4.0000E-04  2.0000E-03  2.0000E-03   0.000       0.000      4.0000E-04  4.0000E-04  4.0000E-04   0.000       0.000    
   3    0.000      4.0000E-04  2.0000E-03  2.0000E-03  4.0000E-04  4.0000E-04  4.0000E-04  4.0000E-04   0.000       0.000    
   4   4.0000E-04  4.0000E-04  4.0000E-04  2.0000E-03  2.0000E-03  2.0000E-03  4.0000E-04  4.0000E-04  4.0000E-04   0.000    
   5   4.0000E-04  4.0000E-04  4.0000E-04  2.0000E-03  2.0000E-03  2.0000E-03  2.0000E-03  2.0000E-03  2.0000E-03  2.0000E-03
   6   4.0000E-04  4.0000E-04  4.0000E-04  2.0000E-03  2.0000E-03  2.0000E-03  2.0000E-03  2.0000E-03  4.0000E-04  4.0000E-04
   7   4.0000E-04  4.0000E-04  4.0000E-04  2.0000E-03  2.0000E-03  2.0000E-03  2.0000E-03  2.0000E-03  4.0000E-04   0.000    
   8    0.000      4.0000E-04  4.0000E-04  2.0000E-03  2.0000E-03  2.0000E-03  2.0000E-03  4.0000E-04  4.0000E-04   0.000    
   9    0.000      4.0000E-04  4.0000E-04  2.0000E-03  2.0000E-03  2.0000E-03  2.0000E-03  4.0000E-04  4.0000E-04   0.000    
  10    0.000      4.0000E-04  4.0000E-04  2.0000E-03  2.0000E-03  2.0000E-03  2.0000E-03  4.0000E-04  4.0000E-04  4.0000E-04
  11    0.000      4.0000E-04  4.0000E-04  2.0000E-03  2.0000E-03  2.0000E-03  2.0000E-03  4.0000E-04  4.0000E-04   0.000    
  12   4.0000E-04  4.0000E-04  2.0000E-03  2.0000E-03  2.0000E-03  2.0000E-03  2.0000E-03  4.0000E-04  4.0000E-04   0.000    
  13   2.0000E-03  2.0000E-03  2.0000E-03  2.0000E-03  2.0000E-03  2.0000E-03  2.0000E-03  2.0000E-03  2.0000E-03   0.000    
  14    0.000      4.0000E-04  4.0000E-04  4.0000E-04  4.0000E-04  4.0000E-04  4.0000E-04  4.0000E-04  2.0000E-03   0.000    
  15    0.000       0.000      4.0000E-04  4.0000E-04  4.0000E-04  4.0000E-04   0.000       0.000       0.000       0.000    

      VERTICAL HYD. COND. =  1.000000E-06 FOR LAYER   1

         SPECIFIC STORAGE =  1.000000E-06 FOR LAYER   1



                     SPECIFIC YIELD FOR LAYER   1
 READING ON UNIT    7 WITH FORMAT: (10F5.0)            

            1           2           3           4           5           6           7           8           9          10
 ........................................................................................................................
   1   0.2000      0.2000       0.000       0.000       0.000       0.000       0.000       0.000       0.000       0.000    
   2   0.1000      0.2000      0.2000       0.000       0.000      0.1000      0.1000      0.1000       0.000       0.000    
   3    0.000      0.1000      0.2000      0.2000      0.1000      0.1000      0.1000      0.1000       0.000       0.000    
   4   0.1000      0.1000      0.1000      0.2000      0.2000      0.2000      0.1000      0.1000      0.1000       0.000    
   5   0.1000      0.1000      0.1000      0.2000      0.2000      0.2000      0.2000      0.2000      0.2000      0.2000    
   6   0.1000      0.1000      0.1000      0.2000      0.2000      0.2000      0.2000      0.2000      0.1000      0.1000    
   7   0.1000      0.1000      0.1000      0.2000      0.2000      0.2000      0.2000      0.2000      0.1000       0.000    
   8    0.000      0.1000      0.1000      0.2000      0.2000      0.2000      0.2000      0.1000      0.1000       0.000    
   9    0.000      0.1000      0.1000      0.2000      0.2000      0.2000      0.2000      0.1000      0.1000       0.000    
  10    0.000      0.1000      0.1000      0.2000      0.2000      0.2000      0.2000      0.1000      0.1000      0.1000    
  11    0.000      0.1000      0.1000      0.2000      0.2000      0.2000      0.2000      0.1000      0.1000       0.000    
  12   0.1000      0.1000      0.2000      0.2000      0.2000      0.2000      0.2000      0.1000      0.1000       0.000    
  13   0.2000      0.2000      0.2000      0.2000      0.2000      0.2000      0.2000      0.2000      0.2000       0.000    
  14    0.000      0.1000      0.1000      0.1000      0.1000      0.1000      0.1000      0.1000      0.2000       0.000    
  15    0.000       0.000      0.1000      0.1000      0.1000      0.1000       0.000       0.000       0.000       0.000    

 WEL -- WELL PACKAGE, VERSION 7, 5/2/2005 INPUT READ FROM UNIT   16
 #Well Package input for test simulation 2
 No named parameters
 MAXIMUM OF     10 ACTIVE WELLS AT ONE TIME
 CELL-BY-CELL FLOWS WILL BE PRINTED WHEN ICBCFL NOT 0


     0 Well parameters

 GHB -- GENERAL-HEAD BOUNDARY PACKAGE, VERSION 7, 5/2/2005
         INPUT READ FROM UNIT   17
 No named parameters
 MAXIMUM OF      2 ACTIVE GHB CELLS AT ONE TIME
 CELL-BY-CELL FLOWS WILL BE PRINTED WHEN ICBCFL NOT 0


     0 GHB parameters

 SFR7 -- STREAMFLOW ROUTING PACKAGE, VERSION 1.0.8, 2017-02-01
         INPUT READ FROM UNIT  15
 #SFR2 Package input for Test Simulation 2
 No named parameters

 END PROCESSING SFR2 OPTIONS


 NUMBER OF STREAM REACHES IS   36

 NUMBER OF STREAM SEGMENTS IS    8

 NUMBER OF STREAM PARAMETERS IS    0

 NUMBER OF STREAM SEGMENTS DEFINED USING PARAMETERS IS              0

 MAXIMUM ERROR FOR STREAM LEAKAGE RATES IS  1.00E-06

 CONSTANT FOR MANNINGS EQUATION IS  1.4860E+00



 STREAM OUTPUT WILL BE WRITTEN TO FILE ON UNIT   81


   STREAM NETWORK DESCRIPTION: 

   LAYER    ROW    COL   SEGMENT   REACH     LENGTH
                          NUMBER   NUMBER    IN CELL        
   --------------------------------------------------
      1      1      1       1        1    4.5000E+03
      1      2      2       1        2    7.0000E+03
      1      3      3       1        3    6.0000E+03
      1      3      4       1        4    5.5500E+03
      1      4      5       2        1    6.5000E+03
      1      5      6       2        2    5.0000E+03
      1      6      6       2        3    5.0000E+03
      1      7      6       2        4    5.0000E+03
      1      8      6       2        5    5.0000E+03
      1      3      5       3        1    5.0000E+03
      1      3      6       3        2    5.0000E+03
      1      3      7       3        3    4.5000E+03
      1      4      8       3        4    6.0000E+03
      1      5      8       3        5    5.0000E+03
      1      6      8       3        6    2.0000E+03
      1      5     10       4        1    2.5000E+03
      1      5      9       4        2    5.0000E+03
      1      6      8       4        3    3.5000E+03
      1      6      8       5        1    4.0000E+03
      1      7      7       5        2    5.0000E+03
      1      8      7       5        3    3.5000E+03
      1      8      6       5        4    2.5000E+03
      1      9      6       6        1    5.0000E+03
      1     10      7       6        2    5.0000E+03
      1     11      7       6        3    5.0000E+03
      1     12      7       6        4    5.0000E+03
      1     13      7       6        5    2.0000E+03
      1     14      9       7        1    5.0000E+03
      1     13      8       7        2    5.5000E+03
      1     13      7       7        3    5.0000E+03
      1     13      6       8        1    5.0000E+03
      1     13      5       8        2    5.0000E+03
      1     13      4       8        3    5.0000E+03
      1     13      3       8        4    5.0000E+03
      1     13      2       8        5    5.0000E+03
      1     13      1       8        6    3.0000E+03




 UZF1 -- UNSATURATED FLOW PACKAGE, VERSION 1.4, 02/06/2012
         INPUT READ FROM UNIT 19
 #UZF Package input for test simulation 2
 No named parameters

 END PROCESSING UZF OPTIONS



            AREAL EXTENT OF UZ FLOW
 READING ON UNIT   19 WITH FORMAT: (20I4)              

                1           2           3           4           5           6           7           8           9          10
 ............................................................................................................................
   1            1           1           0           0           0           0           0           0           0           0
   2            1           1           1           0           0           1           1           1           0           0
   3            0           1           1           1           1           1           1           1           0           0
   4            1           1           1           1           1           1           1           1           1           0
   5            1           1           1           1           1           1           1           1           1           1
   6            1           1           1           1           1           1           1           1           1           1
   7            1           1           1           1           1           1           1           1           1           0
   8            0           1           1           1           1           1           1           1           1           0
   9            0           1           1           1           1           1           1           1           1           0
  10            0           1           1           1           1           1           1           1           1           1
  11            0           1           1           1           1           1           1           1           1           0
  12            1           1           1           1           1           1           1           1           1           0
  13            1           1           1           1           1           1           1           1           1           0
  14            0           1           1           1           1           1           1           1           1           0
  15            0           0           1           1           1           1           0           0           0           0
 OPTION 1 -- RECHARGE IN UZF TO TOP LAYER ONLY 



            ROUTING OVERLAND RUNOFF
 READING ON UNIT   19 WITH FORMAT: (20I4)              

                1           2           3           4           5           6           7           8           9          10
 ............................................................................................................................
   1            1           1           0           0           0           0           0           0           0           0
   2            1           1           1           0           0           3           3           3           0           0
   3            0           1           1           1           3           3           3           3           0           0
   4            8           8           2           2           2           2           2           3           3           0
   5            8           8           8           8           2           2           2           3           4           4
   6            8           8           8           8           8           2           2           4           4           4
   7            8           8           8           8           8           2           5           5           5           0
   8            0           8           8           8           8           2           5           5           5           0
   9            0           8           8           8           8           6           6           6           6           0
  10            0           8           8           8           8           6           6           6           6           6
  11            0           8           8           8           8           8           6           6           7           0
  12            8           8           8           8           8           8           6           7           7           0
  13            8           8           8           8           8           8           7           7           7           0
  14            0           8           8           8           8           8           7           7           7           0
  15            0           0           8           8           8           8           0           0           0           0



               SATURATED VERTICAL K
 READING ON UNIT   19 WITH FORMAT: (10F4.0)            

            1           2           3           4           5           6           7           8           9          10
 ........................................................................................................................
   1   1.0000E-06  1.0000E-06   0.000       0.000       0.000       0.000       0.000       0.000       0.000       0.000    
   2   1.0000E-06  1.0000E-06  1.0000E-06   0.000       0.000      1.0000E-06  1.0000E-06  1.0000E-06   0.000       0.000    
   3    0.000      1.0000E-06  1.0000E-06  1.0000E-06  1.0000E-06  1.0000E-06  1.0000E-06  1.0000E-06   0.000       0.000    
   4   1.0000E-06  1.0000E-06  1.0000E-06  1.0000E-06  1.0000E-06  1.0000E-06  1.0000E-06  1.0000E-06  1.0000E-06   0.000    
   5   1.0000E-06  1.0000E-06  1.0000E-06  1.0000E-06  1.0000E-06  1.0000E-06  1.0000E-06  1.0000E-06  1.0000E-06  1.0000E-06
   6   1.0000E-06  1.0000E-06  1.0000E-06  1.0000E-06  1.0000E-06  1.0000E-06  1.0000E-06  1.0000E-06  1.0000E-06  1.0000E-06
   7   1.0000E-06  1.0000E-06  1.0000E-06  1.0000E-06  1.0000E-06  1.0000E-06  1.0000E-06  1.0000E-06  1.0000E-06   0.000    
   8    0.000      1.0000E-06  1.0000E-06  1.0000E-06  1.0000E-06  1.0000E-06  1.0000E-06  1.0000E-06  1.0000E-06   0.000    
   9    0.000      1.0000E-06  1.0000E-06  1.0000E-06  1.0000E-06  1.0000E-06  1.0000E-06  1.0000E-06  1.0000E-06   0.000    
  10    0.000      1.0000E-06  1.0000E-06  1.0000E-06  1.0000E-06  1.0000E-06  1.0000E-06  1.0000E-06  1.0000E-06  1.0000E-06
  11    0.000      1.0000E-06  1.0000E-06  1.0000E-06  1.0000E-06  1.0000E-06  1.0000E-06  1.0000E-06  1.0000E-06   0.000    
  12   1.0000E-06  1.0000E-06  1.0000E-06  1.0000E-06  1.0000E-06  1.0000E-06  1.0000E-06  1.0000E-06  1.0000E-06   0.000    
  13   1.0000E-06  1.0000E-06  1.0000E-06  1.0000E-06  1.0000E-06  1.0000E-06  1.0000E-06  1.0000E-06  1.0000E-06   0.000    
  14    0.000      1.0000E-06  1.0000E-06  1.0000E-06  1.0000E-06  1.0000E-06  1.0000E-06  1.0000E-06  1.0000E-06   0.000    
  15    0.000       0.000      1.0000E-06  1.0000E-06  1.0000E-06  1.0000E-06   0.000       0.000       0.000       0.000    

     BROOKS-COREY EPSILON =   3.50000    

  SATURATED WATER CONTENT =  0.300000    

UNSATURATED FLOW RESULTS WILL BE PRINTED TO SEPARATE FILES FOR SELECTED MODEL CELLS, AND TIME STEPS AS DEFINED BY OUTPUT CONTROL PACKAGE 

SELECTED MODEL CELLS ARE: 
 ROW NUMBER  COLUMN NUMBER  FORTRAN UNIT NUMBER  OUTPUT OPTION


       3             6                 65                 1
       6             3                 66                 2
      10             5                 67                 3
       0             0                 68                 4



   9 GAGING STATIONS WERE SPECIFIED.
     (Lakes are identified by a negative value of the Lake Number)
     RECORDS WILL BE WRITTEN TO SEPARATE OUTPUT FILES REPRESENTED BY FOLLOWING UNIT NUMBERS:

 Stream Gages:
  GAGE #   SEGMENT   REACH   UNIT   OUTTYPE
       1       1       4      83       1
       2       2       3      84       1
       3       3       5      85       1
       4       4       3      86       1
       5       5       4      87       4
       6       6       5      88       4
       7       7       3      89       4
       8       8       6      90       4
       9       3       1      91       5





 SIP -- STRONGLY-IMPLICIT PROCEDURE SOLUTION PACKAGE
                    VERSION 7, 5/2/2005 INPUT READ FROM UNIT   13
 MAXIMUM OF 300 ITERATIONS ALLOWED FOR CLOSURE
  5 ITERATION PARAMETERS

          SOLUTION BY THE STRONGLY IMPLICIT PROCEDURE
          -------------------------------------------
 MAXIMUM ITERATIONS ALLOWED FOR CLOSURE =      300
                 ACCELERATION PARAMETER =    0.80000    
      HEAD CHANGE CRITERION FOR CLOSURE =    0.20000E-03
      SIP HEAD CHANGE PRINTOUT INTERVAL =        1

     CALCULATE ITERATION PARAMETERS FROM MODEL CALCULATED WSEED
1
                            STRESS PERIOD NO.    1, LENGTH =   2628000.    
                            -----------------------------------------------

                              NUMBER OF TIME STEPS =     1

                               MULTIPLIER FOR DELT =     1.000

                            INITIAL TIME STEP SIZE =   2628000.    

 WELL NO.  LAYER   ROW   COL   STRESS RATE         
 --------------------------------------------------
      1      1      6      4      -2.000    
      2      1      6      5      -2.000    
      3      1      7      4      -2.000    
      4      1      7      5      -2.000    
      5      1      8      4      -2.000    
      6      1      8      5      -2.000    
      7      1      9      4      -2.000    
      8      1      9      5      -2.000    
      9      1     10      4      -2.000    
     10      1     10      5      -2.000    

     10 WELLS

 BOUND. NO. LAYER   ROW   COL     STAGE      CONDUCTANCE         
 ----------------------------------------------------------------
      1      1     13      1       988.0          0.3800E-01
      2      1     14      9       1045.          0.3800E-01

      2 GHB CELLS



 CLASSIFICATION & COUNT OF STREAM SEGMENTS BASED ON SOURCE OF INFLOW:

                HEADWATER     DIVERSION     RECEIVES TRIBUTARY FLOW
                ---------     ---------     -----------------------
                     3              1               4



                    INPUT DATA FOR EACH STREAM SEGMENT
 ---------------------------------------------------------------------------------------------

 SEGMENT    SEG.     INFLOW   OVERLAND   STREAM    STREAM   ICALC  OUTFLOW  DIVERSION PRIORITY
    NO.    LENGTH     RATE     RUNOFF      ET       PPT.    METH.  TO SEG.  FROM SEG.    NO.

      1  2.305E+04 2.500E+01 0.000E+00 0.000E+00 0.000E+00    4        2        0        0
      2  2.650E+04 0.000E+00 0.000E+00 0.000E+00 0.000E+00    1        6        0        0
      3  2.750E+04 1.000E+01 0.000E+00 0.000E+00 0.000E+00    0        5        1        0
      4  1.100E+04 1.000E+01 0.000E+00 0.000E+00 0.000E+00    1        5        0        0
      5  1.500E+04 0.000E+00 0.000E+00 0.000E+00 0.000E+00    3        6        0        0
      6  2.200E+04 0.000E+00 0.000E+00 0.000E+00 0.000E+00    1        8        0        0
      7  1.550E+04 1.500E+02 0.000E+00 0.000E+00 0.000E+00    2        8        0        0
      8  2.800E+04 0.000E+00 0.000E+00 0.000E+00 0.000E+00    2        0        0        0


         STREAMBED PROPERTIES AND STREAM DIMENSIONS

 SEGMENT     BED HYD. COND.      BED THICKNESS     ELEV.-TOP OF BED     WIDTH OF STREAM     DEPTH OF STREAM    STREAM ROUGHNESS
    No.     UPPER     LOWER     UPPER     LOWER     UPPER     LOWER     UPPER     LOWER     UPPER     LOWER   CHANNEL      BANK

     1  3.000E-05 3.000E-05 3.000E+00 3.000E+00 1.095E+03 1.075E+03
     2  3.000E-05 3.000E-05 3.000E+00 3.000E+00 1.075E+03 1.050E+03 1.200E+01 1.200E+01                     3.000E-02
     3  3.000E-05 3.000E-05 2.000E+00 2.000E+00 1.075E+03 1.060E+03 1.000E+01 6.000E+00 2.000E+00 1.000E+00
     4  3.000E-05 3.000E-05 3.000E+00 3.000E+00 1.080E+03 1.060E+03 1.000E+01 1.000E+01                     3.000E-02
     5  3.000E-05 3.000E-05 3.000E+00 3.000E+00 1.060E+03 1.045E+03
     6  3.000E-05 3.000E-05 3.000E+00 3.000E+00 1.045E+03 1.025E+03 1.200E+01 1.200E+01                     3.000E-02
     7  6.000E-05 6.000E-05 3.000E+00 3.000E+00 1.040E+03 1.025E+03                                         2.500E-02 4.500E-02
     8  6.000E-05 6.000E-05 3.000E+00 3.000E+00 1.025E+03 9.900E+02                                         2.500E-02 4.500E-02

  EIGHT POINT CROSS-SECTION DATA FOR SEGMENTS WITH ICALC = 2
    X VALUES X VALUES START FROM LEFT SIDE LOOKING DOWNSTREAM

     SEGMENT NO.        X1        X2        X3        X4        X5        X6        X7        X8
            7      0.000E+00 1.000E+01 8.000E+01 1.000E+02 1.500E+02 1.700E+02 2.400E+02 2.500E+02
            8      0.000E+00 1.000E+01 8.000E+01 1.000E+02 1.500E+02 1.700E+02 2.400E+02 2.500E+02

    Z VALUES ARE RELATIVE TO STREAMBED ELEVATION

     SEGMENT NO.          Z1        Z2        Z3        Z4        Z5        Z6        Z7        Z8
            7      2.000E+01 1.300E+01 1.000E+01 2.000E+00 0.000E+00 1.000E+01 1.300E+01 2.000E+01
            8      2.500E+01 1.700E+01 1.300E+01 4.000E+00 0.000E+00 1.000E+01 1.600E+01 2.000E+01

 STREAMFLOW RELATION WITH DEPTH IS BASED ON EQUATION Q = CDPTH*(DEPTH)**FDPTH
 STREAMFLOW RELATION WITH WIDTH IS BASED ON EQUATION Q = AWDTH*(WIDTH)**BWDTH

 SEGMENT NO.      CDPTH     FDPTH    AWDTH     BWDTH

          5 3.000E-01 3.500E-01 3.800E+00 6.000E-01

 STREAMFLOW RELATION WITH DEPTH AND WIDTH IS BASED ON TABULATED VALUES

  SEGMENT NO.   STREAMFLOW       DEPTH       WIDTH

          1     5.0000E-01   2.5000E-01   3.0000E+00
          1     1.0000E+00   4.0000E-01   3.5000E+00
          1     2.0000E+00   5.5000E-01   4.2000E+00
          1     4.0000E+00   7.0000E-01   5.3000E+00
          1     7.0000E+00   8.0000E-01   7.0000E+00
          1     1.0000E+01   9.0000E-01   8.5000E+00
          1     2.0000E+01   1.1000E+00   1.2000E+01
          1     3.0000E+01   1.2500E+00   1.4000E+01
          1     5.0000E+01   1.4000E+00   1.7000E+01
          1     7.5000E+01   1.7000E+00   2.0000E+01
          1     1.0000E+02   1.8000E+00   2.2000E+01






            AREAL INFILTRATION RATE
 READING ON UNIT   19 WITH FORMAT: (10F4.0)            

            1           2           3           4           5           6           7           8           9          10
 ........................................................................................................................
   1   1.0000E-09  2.0000E-09   0.000       0.000       0.000       0.000       0.000       0.000       0.000       0.000    
   2   2.0000E-09  1.0000E-09  2.0000E-09   0.000       0.000      8.0000E-09  8.0000E-09  5.0000E-09   0.000       0.000    
   3    0.000      5.0000E-09  1.0000E-09  1.0000E-09  8.0000E-09  8.0000E-09  5.0000E-09  5.0000E-09   0.000       0.000    
   4   8.0000E-09  5.0000E-09  1.0000E-09  1.0000E-09  1.0000E-09  1.0000E-09  1.0000E-09  1.0000E-09  2.0000E-09   0.000    
   5   8.0000E-09  5.0000E-09  1.0000E-09  1.0000E-09  1.0000E-09  1.0000E-09  1.0000E-09  1.0000E-09  1.0000E-09  1.0000E-09
   6   8.0000E-09  5.0000E-09  5.0000E-09  2.0000E-09  2.0000E-09  1.0000E-09  1.0000E-09  1.0000E-09  1.0000E-09  5.0000E-09
   7   8.0000E-09  5.0000E-09  5.0000E-09  2.0000E-09  2.0000E-09  1.0000E-09  1.0000E-09  2.0000E-09  2.0000E-09   0.000    
   8    0.000      5.0000E-09  5.0000E-09  2.0000E-09  2.0000E-09  1.0000E-09  1.0000E-09  2.0000E-09  5.0000E-09   0.000    
   9    0.000      5.0000E-09  5.0000E-09  2.0000E-09  2.0000E-09  1.0000E-09  1.0000E-09  2.0000E-09  5.0000E-09   0.000    
  10    0.000      5.0000E-09  5.0000E-09  2.0000E-09  2.0000E-09  1.0000E-09  1.0000E-09  2.0000E-09  5.0000E-09  8.0000E-09
  11    0.000      1.0000E-09  1.0000E-09  1.0000E-09  1.0000E-09  1.0000E-09  1.0000E-09  2.0000E-09  5.0000E-09   0.000    
  12   1.0000E-09  1.0000E-09  1.0000E-09  1.0000E-09  1.0000E-09  1.0000E-09  1.0000E-09  1.0000E-09  2.0000E-09   0.000    
  13   1.0000E-09  1.0000E-09  2.0000E-09  2.0000E-09  2.0000E-09  2.0000E-09  2.0000E-09  1.0000E-09  1.0000E-09   0.000    
  14    0.000      2.0000E-09  5.0000E-09  5.0000E-09  5.0000E-09  5.0000E-09  5.0000E-09  2.0000E-09  1.0000E-09   0.000    
  15    0.000       0.000      8.0000E-09  8.0000E-09  8.0000E-09  8.0000E-09   0.000       0.000       0.000       0.000    

                  ET RATE =  5.000000E-08

      ET EXTINCTION DEPTH =   15.0000    



           EXTINCTION WATER CONTENT
 READING ON UNIT   19 WITH FORMAT: (10F4.0)            

            1           2           3           4           5           6           7           8           9          10
 ........................................................................................................................
   1   0.1000      0.1000       0.000       0.000       0.000       0.000       0.000       0.000       0.000       0.000    
   2   0.2000      0.1000      0.1000       0.000       0.000      0.2000      0.2000      0.2000       0.000       0.000    
   3    0.000      0.2000      0.1000      0.1000      0.2000      0.2000      0.2000      0.2000       0.000       0.000    
   4   0.2000      0.2000      0.2000      0.1000      0.1000      0.1000      0.2000      0.2000      0.2000      0.1000    
   5   0.2000      0.2000      0.2000      0.1000      0.1000      0.1000      0.1000      0.1000      0.1000      0.1000    
   6   0.2000      0.2000      0.2000      0.1000      0.1000      0.1000      0.1000      0.1000      0.2000      0.2000    
   7   0.2000      0.2000      0.2000      0.1000      0.1000      0.1000      0.1000      0.1000      0.2000       0.000    
   8    0.000      0.2000      0.2000      0.1000      0.1000      0.1000      0.1000      0.2000      0.2000       0.000    
   9    0.000      0.2000      0.2000      0.1000      0.1000      0.1000      0.1000      0.2000      0.2000       0.000    
  10    0.000      0.2000      0.2000      0.1000      0.1000      0.1000      0.1000      0.2000      0.2000      0.2000    
  11    0.000      0.2000      0.2000      0.1000      0.1000      0.1000      0.1000      0.2000      0.2000       0.000    
  12   0.2000      0.2000      0.1000      0.1000      0.1000      0.1000      0.1000      0.2000      0.2000       0.000    
  13   0.1000      0.1000      0.1000      0.1000      0.1000      0.1000      0.1000      0.1000      0.1000       0.000    
  14    0.000      0.2000      0.2000      0.2000      0.2000      0.2000      0.2000      0.2000      0.1000       0.000    
  15    0.000       0.000      0.2000      0.2000      0.2000      0.2000       0.000       0.000       0.000       0.000    
 
 SOLVING FOR HEAD 

 AVERAGE SEED = 0.00926840
 MINIMUM SEED = 0.00187768

     5 ITERATION PARAMETERS CALCULATED FROM AVERAGE SEED:

  0.000000E+00 0.689722E+00 0.903727E+00 0.970129E+00 0.990732E+00

    30 ITERATIONS FOR TIME STEP   1 IN STRESS PERIOD    1

 MAXIMUM HEAD CHANGE FOR EACH ITERATION:

    HEAD CHANGE   HEAD CHANGE   HEAD CHANGE   HEAD CHANGE   HEAD CHANGE
  LAYER,ROW,COL LAYER,ROW,COL LAYER,ROW,COL LAYER,ROW,COL LAYER,ROW,COL
 ----------------------------------------------------------------------
      5.187        -1.627        -1.328        -1.137        -1.207    
  (  1, 15,  3) (  1,  8,  4) (  1,  6,  4) (  1,  7,  2) (  1, 10,  7)
    -0.4943       -0.1953       -0.2020       -0.2794       -0.1413    
  (  1, 10, 10) (  1,  9,  9) (  1,  8,  7) (  1,  7,  6) (  1, 10,  7)
    -0.1806       -0.3591E-01   -0.4329E-01   -0.4096E-01   -0.3820E-01
  (  1, 10, 10) (  1, 10, 10) (  1,  6,  5) (  1,  7,  1) (  1,  6,  6)
    -0.3408E-01   -0.8376E-02   -0.6778E-02   -0.9081E-02   -0.4933E-02
  (  1, 10, 10) (  1,  9,  9) (  1,  8,  5) (  1,  6,  1) (  1,  8,  2)
    -0.6385E-02   -0.1282E-02   -0.1621E-02   -0.1532E-02   -0.1430E-02
  (  1, 10, 10) (  1, 10, 10) (  1,  6,  5) (  1,  7,  1) (  1,  6,  6)
    -0.1244E-02   -0.3133E-03   -0.2688E-03   -0.3794E-03   -0.1894E-03
  (  1, 10, 10) (  1,  9,  9) (  1,  8,  5) (  1,  6,  6) (  1,  7,  2)


 OUTPUT CONTROL FOR STRESS PERIOD    1   TIME STEP    1
    PRINT BUDGET
    SAVE BUDGET

            WELLS   PERIOD    1   STEP   1
 WELL      1   LAYER   1   ROW     6   COL     4   RATE    -2.00000    
 WELL      2   LAYER   1   ROW     6   COL     5   RATE    -2.00000    
 WELL      3   LAYER   1   ROW     7   COL     4   RATE    -2.00000    
 WELL      4   LAYER   1   ROW     7   COL     5   RATE    -2.00000    
 WELL      5   LAYER   1   ROW     8   COL     4   RATE    -2.00000    
 WELL      6   LAYER   1   ROW     8   COL     5   RATE    -2.00000    
 WELL      7   LAYER   1   ROW     9   COL     4   RATE    -2.00000    
 WELL      8   LAYER   1   ROW     9   COL     5   RATE    -2.00000    
 WELL      9   LAYER   1   ROW    10   COL     4   RATE    -2.00000    
 WELL     10   LAYER   1   ROW    10   COL     5   RATE    -2.00000    

  HEAD DEP BOUNDS   PERIOD    1   STEP   1
 BOUNDARY      1   LAYER   1   ROW    13   COL     1   RATE   -0.261186    
 BOUNDARY      2   LAYER   1   ROW    14   COL     9   RATE    0.209944    



 STREAM LISTING     PERIOD      1   STEP        1

 LAYER ROW COL. STREAM  RCH.  FLOW INTO     FLOW TO   FLOW OUT OF   OVRLND.     DIRECT     STREAM       STREAM     STREAM     STREAM   STREAMBED  STREAMBED
                SEG.NO.  NO.  STRM. RCH.    AQUIFER    STRM. RCH.    RUNOFF     PRECIP       ET          HEAD       DEPTH      WIDTH   CONDCTNC.   GRADIENT

   1    1    1     1     1    2.5000E+01  1.0782E+00   2.3922E+01  0.000E+00  0.000E+00  0.000E+00  1.09422E+03  1.172E+00  1.295E+01  5.830E-01  6.165E-01
   1    2    2     1     2    2.3922E+01  3.1526E+00   2.0769E+01  0.000E+00  0.000E+00  0.000E+00  1.08920E+03  1.139E+00  1.252E+01  8.762E-01  1.199E+00
   1    3    3     1     3    2.0769E+01  2.8941E+00   1.7875E+01  0.000E+00  0.000E+00  0.000E+00  1.08351E+03  1.089E+00  1.180E+01  7.078E-01  1.363E+00
   1    3    4     1     4    1.7875E+01  2.4577E+00   1.5417E+01  0.000E+00  0.000E+00  0.000E+00  1.07845E+03  1.043E+00  1.095E+01  6.079E-01  1.348E+00
   1    4    5     2     1    5.4174E+00  2.6578E+00   2.7596E+00  0.000E+00  0.000E+00  0.000E+00  1.07234E+03  4.075E-01  1.200E+01  7.800E-01  1.136E+00
   1    5    6     2     2    2.7596E+00  1.9487E+00   8.1090E-01  0.000E+00  0.000E+00  0.000E+00  1.06676E+03  2.478E-01  1.200E+01  6.000E-01  1.083E+00
   1    6    6     2     3    8.1090E-01  8.1090E-01   0.0000E+00  0.000E+00  0.000E+00  0.000E+00  1.06183E+03  3.473E-02  1.200E+01  6.000E-01  1.012E+00
   1    7    6     2     4    0.0000E+00  0.0000E+00   0.0000E+00  0.000E+00  0.000E+00  0.000E+00  1.05708E+03  0.000E+00  1.200E+01  6.000E-01  1.000E+00
   1    8    6     2     5    0.0000E+00  0.0000E+00   0.0000E+00  0.000E+00  0.000E+00  0.000E+00  1.05236E+03  0.000E+00  1.200E+01  6.000E-01  1.000E+00
   1    3    5     3     1    1.0000E+01  2.8252E+00   7.1748E+00  0.000E+00  0.000E+00  0.000E+00  1.07555E+03  1.909E+00  9.636E+00  7.227E-01  1.955E+00
   1    3    6     3     2    7.1748E+00  2.2827E+00   4.8921E+00  0.000E+00  0.000E+00  0.000E+00  1.07264E+03  1.727E+00  8.909E+00  6.682E-01  1.708E+00
   1    3    7     3     3    4.8921E+00  1.1634E+00   3.7286E+00  0.000E+00  0.000E+00  0.000E+00  1.06987E+03  1.555E+00  8.218E+00  5.547E-01  1.049E+00
   1    4    8     3     4    3.7286E+00  1.6872E+00   2.0415E+00  0.000E+00  0.000E+00  0.000E+00  1.06682E+03  1.364E+00  7.455E+00  6.709E-01  1.257E+00
   1    5    8     3     5    2.0415E+00  1.5790E+00   4.6251E-01  0.000E+00  0.000E+00  0.000E+00  1.06362E+03  1.164E+00  6.655E+00  4.991E-01  1.582E+00
   1    6    8     3     6    4.6251E-01  4.6251E-01   0.0000E+00  0.000E+00  0.000E+00  0.000E+00  1.06158E+03  0.000E+00  6.145E+00  1.844E-01  1.518E+00
   1    5   10     4     1    1.0000E+01  9.0525E-01   9.0947E+00  0.000E+00  0.000E+00  0.000E+00  1.07835E+03  6.210E-01  1.000E+01  2.500E-01  1.207E+00
   1    5    9     4     2    9.0947E+00  1.7835E+00   7.3113E+00  0.000E+00  0.000E+00  0.000E+00  1.07148E+03  5.670E-01  1.000E+01  5.000E-01  1.189E+00
   1    6    8     4     3    7.3113E+00  1.2257E+00   6.0855E+00  0.000E+00  0.000E+00  0.000E+00  1.06368E+03  5.021E-01  1.000E+01  3.500E-01  1.167E+00
   1    6    8     5     1    6.0855E+00  1.0332E+00   5.0523E+00  0.000E+00  0.000E+00  0.000E+00  1.05855E+03  5.472E-01  1.065E+01  4.259E-01  8.087E-01
   1    7    7     5     2    5.0523E+00  1.5857E+00   3.4666E+00  0.000E+00  0.000E+00  0.000E+00  1.05400E+03  4.982E-01  9.066E+00  4.533E-01  1.166E+00
   1    8    7     5     3    3.4666E+00  8.8887E-01   2.5778E+00  0.000E+00  0.000E+00  0.000E+00  1.04969E+03  4.418E-01  7.379E+00  2.583E-01  1.147E+00
   1    8    6     5     4    2.5778E+00  5.3423E-01   2.0435E+00  0.000E+00  0.000E+00  0.000E+00  1.04665E+03  4.022E-01  6.281E+00  1.570E-01  1.134E+00
   1    9    6     6     1    2.0435E+00  1.9117E+00   1.3183E-01  0.000E+00  0.000E+00  0.000E+00  1.04291E+03  1.862E-01  1.200E+01  6.000E-01  1.062E+00
   1   10    7     6     2    1.3183E-01  1.3183E-01   0.0000E+00  0.000E+00  0.000E+00  0.000E+00  1.03819E+03  1.181E-02  1.200E+01  6.000E-01  1.004E+00
   1   11    7     6     3    0.0000E+00  0.0000E+00   0.0000E+00  0.000E+00  0.000E+00  0.000E+00  1.03364E+03  0.000E+00  1.200E+01  6.000E-01  1.000E+00
   1   12    7     6     4    0.0000E+00  0.0000E+00   0.0000E+00  0.000E+00  0.000E+00  0.000E+00  1.02909E+03  0.000E+00  1.200E+01  6.000E-01  4.154E-01
   1   13    7     6     5    0.0000E+00 -7.6281E-01   7.6281E-01  0.000E+00  0.000E+00  0.000E+00  1.02601E+03  9.927E-02  1.200E+01  2.400E-01 -1.059E+00
   1   14    9     7     1    1.5000E+02  2.1864E+00   1.4781E+02  0.000E+00  0.000E+00  0.000E+00  1.03987E+03  2.285E+00  5.528E+01  5.592E+00  1.303E-01
   1   13    8     7     2    1.4781E+02  3.2075E+00   1.4461E+02  0.000E+00  0.000E+00  0.000E+00  1.03477E+03  2.271E+00  5.522E+01  6.143E+00  1.740E-01
   1   13    7     7     3    1.4461E+02  2.7204E+00   1.4189E+02  0.000E+00  0.000E+00  0.000E+00  1.02967E+03  2.255E+00  5.515E+01  5.577E+00  1.626E-01
   1   13    6     8     1    1.4265E+02  1.0424E+00   1.4161E+02  0.000E+00  0.000E+00  0.000E+00  1.02464E+03  2.760E+00  4.003E+01  4.079E+00  8.519E-02
   1   13    5     8     2    1.4161E+02 -1.7241E+00   1.4333E+02  0.000E+00  0.000E+00  0.000E+00  1.01839E+03  2.763E+00  4.006E+01  4.083E+00 -1.408E-01
   1   13    4     8     3    1.4333E+02 -3.4966E+00   1.4683E+02  0.000E+00  0.000E+00  0.000E+00  1.01216E+03  2.782E+00  4.034E+01  4.110E+00 -2.836E-01
   1   13    3     8     4    1.4683E+02 -3.8389E+00   1.5067E+02  0.000E+00  0.000E+00  0.000E+00  1.00593E+03  2.808E+00  4.072E+01  4.149E+00 -3.084E-01
   1   13    2     8     5    1.5067E+02 -1.9163E+00   1.5258E+02  0.000E+00  0.000E+00  0.000E+00  9.99703E+02  2.828E+00  4.101E+01  4.179E+00 -1.529E-01
   1   13    1     8     6    1.5258E+02 -4.0732E-01   1.5299E+02  0.000E+00  0.000E+00  0.000E+00  9.94711E+02  2.836E+00  4.113E+01  2.515E+00 -5.399E-02



 UBDSV3 SAVING "           GW ET" ON UNIT  61 AT TIME STEP  1, STRESS PERIOD   1
 UBDSV3 SAVING "    UZF RECHARGE" ON UNIT  61 AT TIME STEP  1, STRESS PERIOD   1
 UBDSV3 SAVING " SURFACE LEAKAGE" ON UNIT  61 AT TIME STEP  1, STRESS PERIOD   1
 UBDSV3 SAVING "       HORT+DUNN" ON UNIT  61 AT TIME STEP  1, STRESS PERIOD   1
 UBDSV3 SAVING "  STORAGE CHANGE" ON UNIT  61 AT TIME STEP  1, STRESS PERIOD   1


UNSATURATED ZONE PACKAGE VOLUMETRIC BUDGET FOR  TIME STEP     1 STRESS PERIOD    1
  ------------------------------------------------------------------------------



     CUMULATIVE VOLUMES      L**3       RATES FOR THIS TIME STEP      L**3/T
     ------------------                 ------------------------

           IN:                                      IN:
           ---                                      ---
        INFILTRATION =    22272300.0000          INFILTRATION =           8.4750

          OUT:                                     OUT:
          ----                                     ----
              UZF ET =       0.0000E+00                UZF ET =       0.0000E+00
        UZF RECHARGE =    22272300.0000          UZF RECHARGE =           8.4750

            IN - OUT =       0.0000E+00              IN - OUT =       0.0000E+00

          STORAGE:                                 STORAGE:
          --------                                 --------
      STORAGE CHANGE =       0.0000E+00        STORAGE CHANGE =       0.0000E+00

 PERCENT DISCREPANCY IS DIFFERENCE BETWEEN IN-OUT MINUS CHANGE IN STORAGE
 DIVIDED BY THE AVERAGE OF IN AND OUT TIMES 100

 PERCENT DISCREPANCY =           0.00     PERCENT DISCREPANCY =           0.00






1
  VOLUMETRIC BUDGET FOR ENTIRE MODEL AT END OF TIME STEP    1, STRESS PERIOD   1
  ------------------------------------------------------------------------------

     CUMULATIVE VOLUMES      L**3       RATES FOR THIS TIME STEP      L**3/T
     ------------------                 ------------------------

           IN:                                      IN:
           ---                                      ---
             STORAGE =           0.0000               STORAGE =           0.0000
       CONSTANT HEAD =           0.0000         CONSTANT HEAD =           0.0000
               WELLS =           0.0000                 WELLS =           0.0000
     HEAD DEP BOUNDS =      551733.8125       HEAD DEP BOUNDS =           0.2099
      STREAM LEAKAGE =   116043808.0000        STREAM LEAKAGE =          44.1567
        UZF RECHARGE =    22272316.0000          UZF RECHARGE =           8.4750
               GW ET =           0.0000                 GW ET =           0.0000
     SURFACE LEAKAGE =           0.0000       SURFACE LEAKAGE =           0.0000

            TOTAL IN =   138867856.0000              TOTAL IN =          52.8417

          OUT:                                     OUT:
          ----                                     ----
             STORAGE =           0.0000               STORAGE =           0.0000
       CONSTANT HEAD =           0.0000         CONSTANT HEAD =           0.0000
               WELLS =    52560000.0000                 WELLS =          20.0000
     HEAD DEP BOUNDS =      686397.8125       HEAD DEP BOUNDS =           0.2612
      STREAM LEAKAGE =    31919658.0000        STREAM LEAKAGE =          12.1460
        UZF RECHARGE =           0.0000          UZF RECHARGE =           0.0000
               GW ET =    53703300.0000                 GW ET =          20.4350
     SURFACE LEAKAGE =           0.0000       SURFACE LEAKAGE =           0.0000

           TOTAL OUT =   138869360.0000             TOTAL OUT =          52.8422

            IN - OUT =       -1504.0000              IN - OUT =      -5.6458E-04

 PERCENT DISCREPANCY =          -0.00     PERCENT DISCREPANCY =          -0.00






         TIME SUMMARY AT END OF TIME STEP    1 IN STRESS PERIOD    1
                    SECONDS     MINUTES      HOURS       DAYS        YEARS
                    -----------------------------------------------------------
   TIME STEP LENGTH 2.62800E+06  43800.      730.00      30.417     8.32763E-02
 STRESS PERIOD TIME 2.62800E+06  43800.      730.00      30.417     8.32763E-02
         TOTAL TIME 2.62800E+06  43800.      730.00      30.417     8.32763E-02
1
1
                            STRESS PERIOD NO.    2, LENGTH =   2628000.    
                            -----------------------------------------------

                              NUMBER OF TIME STEPS =    15

                               MULTIPLIER FOR DELT =     1.100

                            INITIAL TIME STEP SIZE =   82713.07    

 WELL NO.  LAYER   ROW   COL   STRESS RATE         
 --------------------------------------------------
      1      1      6      4      -2.000    
      2      1      6      5      -2.000    
      3      1      7      4      -2.000    
      4      1      7      5      -2.000    
      5      1      8      4      -2.000    
      6      1      8      5      -2.000    
      7      1      9      4      -2.000    
      8      1      9      5      -2.000    
      9      1     10      4      -2.000    
     10      1     10      5      -2.000    

     10 WELLS

 REUSING NON-PARAMETER GHB CELLS FROM LAST STRESS PERIOD

      2 GHB CELLS

 REUSING STREAM SEGMENT DATA FROM LAST STRESS PERIOD



            AREAL INFILTRATION RATE
 READING ON UNIT   19 WITH FORMAT: (10F4.0)            

            1           2           3           4           5           6           7           8           9          10
 ........................................................................................................................
   1   8.0000E-09  1.6000E-08   0.000       0.000       0.000       0.000       0.000       0.000       0.000       0.000    
   2   1.6000E-08  8.0000E-09  1.6000E-08   0.000       0.000      6.4000E-08  6.4000E-08  4.0000E-08   0.000       0.000    
   3    0.000      4.0000E-08  8.0000E-09  8.0000E-09  6.4000E-08  6.4000E-08  4.0000E-08  4.0000E-08   0.000       0.000    
   4   6.4000E-08  4.0000E-08  8.0000E-09  8.0000E-09  8.0000E-09  8.0000E-09  8.0000E-09  8.0000E-09  1.6000E-08   0.000    
   5   6.4000E-08  4.0000E-08  8.0000E-09  8.0000E-09  8.0000E-09  8.0000E-09  8.0000E-09  8.0000E-09  8.0000E-09  8.0000E-09
   6   6.4000E-08  4.0000E-08  4.0000E-08  1.6000E-08  1.6000E-08  8.0000E-09  8.0000E-09  8.0000E-09  8.0000E-09  4.0000E-08
   7   6.4000E-08  4.0000E-08  4.0000E-08  1.6000E-08  1.6000E-08  8.0000E-09  8.0000E-09  1.6000E-08  1.6000E-08   0.000    
   8    0.000      4.0000E-08  4.0000E-08  1.6000E-08  1.6000E-08  8.0000E-09  8.0000E-09  1.6000E-08  4.0000E-08   0.000    
   9    0.000      4.0000E-08  4.0000E-08  1.6000E-08  1.6000E-08  8.0000E-09  8.0000E-09  1.6000E-08  4.0000E-08   0.000    
  10    0.000      4.0000E-08  4.0000E-08  1.6000E-08  1.6000E-08  8.0000E-09  8.0000E-09  1.6000E-08  4.0000E-08  6.4000E-08
  11    0.000      8.0000E-09  8.0000E-09  8.0000E-09  8.0000E-09  8.0000E-09  8.0000E-09  1.6000E-08  4.0000E-08   0.000    
  12   8.0000E-09  8.0000E-09  8.0000E-09  8.0000E-09  8.0000E-09  8.0000E-09  8.0000E-09  8.0000E-09  1.6000E-08   0.000    
  13   8.0000E-09  8.0000E-09  1.6000E-08  1.6000E-08  1.6000E-08  1.6000E-08  1.6000E-08  8.0000E-09  8.0000E-09   0.000    
  14    0.000      1.6000E-08  4.0000E-08  4.0000E-08  4.0000E-08  4.0000E-08  4.0000E-08  1.6000E-08  8.0000E-09   0.000    
  15    0.000       0.000      6.4000E-08  6.4000E-08  6.4000E-08  6.4000E-08   0.000       0.000       0.000       0.000    

                  ET RATE =  5.000000E-08

 USING ET EXTINCTION DEPTH FROM PREVIOUS STRESS PERIOD. CURRENT PERIOD IS:       2

 USING EXTINCTION WATER CONTENT FROM PREVIOUS STRESS PERIOD. CURRENT PERIOD IS:       2
 
 SOLVING FOR HEAD 

     6 ITERATIONS FOR TIME STEP   1 IN STRESS PERIOD    2

 MAXIMUM HEAD CHANGE FOR EACH ITERATION:

    HEAD CHANGE   HEAD CHANGE   HEAD CHANGE   HEAD CHANGE   HEAD CHANGE
  LAYER,ROW,COL LAYER,ROW,COL LAYER,ROW,COL LAYER,ROW,COL LAYER,ROW,COL
 ----------------------------------------------------------------------
     0.8119E-02    0.3250E-02    0.1311E-02    0.5160E-03    0.2046E-03
  (  1,  3,  5) (  1,  3,  5) (  1,  3,  5) (  1,  3,  5) (  1,  3,  5)
     0.1371E-03
  (  1,  3,  6)


 OUTPUT CONTROL WAS SPECIFIED FOR A NONEXISTENT TIME STEP
 OR OUTPUT CONTROL DATA ARE NOT ENTERED IN ASCENDING ORDER
 OUTPUT CONTROL STRESS PERIOD    1   TIME STEP    5
 MODEL STRESS PERIOD    2   TIME STEP    1
 APPLYING THE SPECIFIED OUTPUT CONTROL TO THE CURRENT TIME STEP

 OUTPUT CONTROL FOR STRESS PERIOD    2   TIME STEP    1
    PRINT BUDGET
    SAVE BUDGET

            WELLS   PERIOD    2   STEP   1
 WELL      1   LAYER   1   ROW     6   COL     4   RATE    -2.00000    
 WELL      2   LAYER   1   ROW     6   COL     5   RATE    -2.00000    
 WELL      3   LAYER   1   ROW     7   COL     4   RATE    -2.00000    
 WELL      4   LAYER   1   ROW     7   COL     5   RATE    -2.00000    
 WELL      5   LAYER   1   ROW     8   COL     4   RATE    -2.00000    
 WELL      6   LAYER   1   ROW     8   COL     5   RATE    -2.00000    
 WELL      7   LAYER   1   ROW     9   COL     4   RATE    -2.00000    
 WELL      8   LAYER   1   ROW     9   COL     5   RATE    -2.00000    
 WELL      9   LAYER   1   ROW    10   COL     4   RATE    -2.00000    
 WELL     10   LAYER   1   ROW    10   COL     5   RATE    -2.00000    

  HEAD DEP BOUNDS   PERIOD    2   STEP   1
 BOUNDARY      1   LAYER   1   ROW    13   COL     1   RATE   -0.261274    
 BOUNDARY      2   LAYER   1   ROW    14   COL     9   RATE    0.209783    



 STREAM LISTING     PERIOD      2   STEP        1

 LAYER ROW COL. STREAM  RCH.  FLOW INTO     FLOW TO   FLOW OUT OF   OVRLND.     DIRECT     STREAM       STREAM     STREAM     STREAM   STREAMBED  STREAMBED
                SEG.NO.  NO.  STRM. RCH.    AQUIFER    STRM. RCH.    RUNOFF     PRECIP       ET          HEAD       DEPTH      WIDTH   CONDCTNC.   GRADIENT

   1    1    1     1     1    2.5000E+01  1.0761E+00   2.3924E+01  0.000E+00  0.000E+00  0.000E+00  1.09422E+03  1.172E+00  1.295E+01  5.830E-01  6.153E-01
   1    2    2     1     2    2.3924E+01  3.1479E+00   2.0776E+01  0.000E+00  0.000E+00  0.000E+00  1.08920E+03  1.139E+00  1.252E+01  8.762E-01  1.197E+00
   1    3    3     1     3    2.0776E+01  2.8946E+00   1.7881E+01  0.000E+00  0.000E+00  0.000E+00  1.08351E+03  1.089E+00  1.180E+01  7.079E-01  1.363E+00
   1    3    4     1     4    1.7881E+01  2.4582E+00   1.5423E+01  0.000E+00  0.000E+00  0.000E+00  1.07845E+03  1.043E+00  1.095E+01  6.080E-01  1.348E+00
   1    4    5     2     1    5.4232E+00  2.6581E+00   2.7651E+00  0.000E+00  0.000E+00  0.000E+00  1.07234E+03  4.078E-01  1.200E+01  7.800E-01  1.136E+00
   1    5    6     2     2    2.7651E+00  1.9490E+00   8.1613E-01  0.000E+00  0.000E+00  0.000E+00  1.06676E+03  2.483E-01  1.200E+01  6.000E-01  1.083E+00
   1    6    6     2     3    8.1613E-01  8.1613E-01   0.0000E+00  0.000E+00  0.000E+00  0.000E+00  1.06183E+03  3.486E-02  1.200E+01  6.000E-01  1.012E+00
   1    7    6     2     4    0.0000E+00  0.0000E+00   0.0000E+00  0.000E+00  0.000E+00  0.000E+00  1.05708E+03  0.000E+00  1.200E+01  6.000E-01  1.000E+00
   1    8    6     2     5    0.0000E+00  0.0000E+00   0.0000E+00  0.000E+00  0.000E+00  0.000E+00  1.05236E+03  0.000E+00  1.200E+01  6.000E-01  1.000E+00
   1    3    5     3     1    1.0000E+01  2.8252E+00   7.1748E+00  0.000E+00  0.000E+00  0.000E+00  1.07555E+03  1.909E+00  9.636E+00  7.227E-01  1.955E+00
   1    3    6     3     2    7.1748E+00  2.2742E+00   4.9006E+00  0.000E+00  0.000E+00  0.000E+00  1.07264E+03  1.727E+00  8.909E+00  6.682E-01  1.702E+00
   1    3    7     3     3    4.9006E+00  1.1574E+00   3.7433E+00  0.000E+00  0.000E+00  0.000E+00  1.06987E+03  1.555E+00  8.218E+00  5.547E-01  1.043E+00
   1    4    8     3     4    3.7433E+00  1.6802E+00   2.0630E+00  0.000E+00  0.000E+00  0.000E+00  1.06682E+03  1.364E+00  7.455E+00  6.709E-01  1.252E+00
   1    5    8     3     5    2.0630E+00  1.5790E+00   4.8405E-01  0.000E+00  0.000E+00  0.000E+00  1.06362E+03  1.164E+00  6.655E+00  4.991E-01  1.582E+00
   1    6    8     3     6    4.8405E-01  4.8405E-01   0.0000E+00  0.000E+00  0.000E+00  0.000E+00  1.06158E+03  0.000E+00  6.145E+00  1.844E-01  1.518E+00
   1    5   10     4     1    1.0000E+01  9.0525E-01   9.0947E+00  0.000E+00  0.000E+00  0.000E+00  1.07835E+03  6.210E-01  1.000E+01  2.500E-01  1.207E+00
   1    5    9     4     2    9.0947E+00  1.7835E+00   7.3113E+00  0.000E+00  0.000E+00  0.000E+00  1.07148E+03  5.670E-01  1.000E+01  5.000E-01  1.189E+00
   1    6    8     4     3    7.3113E+00  1.2257E+00   6.0855E+00  0.000E+00  0.000E+00  0.000E+00  1.06368E+03  5.021E-01  1.000E+01  3.500E-01  1.167E+00
   1    6    8     5     1    6.0855E+00  1.0308E+00   5.0548E+00  0.000E+00  0.000E+00  0.000E+00  1.05855E+03  5.472E-01  1.065E+01  4.260E-01  8.066E-01
   1    7    7     5     2    5.0548E+00  1.5862E+00   3.4686E+00  0.000E+00  0.000E+00  0.000E+00  1.05400E+03  4.983E-01  9.068E+00  4.534E-01  1.166E+00
   1    8    7     5     3    3.4686E+00  8.8920E-01   2.5794E+00  0.000E+00  0.000E+00  0.000E+00  1.04969E+03  4.419E-01  7.381E+00  2.583E-01  1.147E+00
   1    8    6     5     4    2.5794E+00  5.3445E-01   2.0449E+00  0.000E+00  0.000E+00  0.000E+00  1.04665E+03  4.023E-01  6.283E+00  1.571E-01  1.134E+00
   1    9    6     6     1    2.0449E+00  1.9118E+00   1.3316E-01  0.000E+00  0.000E+00  0.000E+00  1.04291E+03  1.863E-01  1.200E+01  6.000E-01  1.062E+00
   1   10    7     6     2    1.3316E-01  1.3316E-01   0.0000E+00  0.000E+00  0.000E+00  0.000E+00  1.03819E+03  1.188E-02  1.200E+01  6.000E-01  1.004E+00
   1   11    7     6     3    0.0000E+00  0.0000E+00   0.0000E+00  0.000E+00  0.000E+00  0.000E+00  1.03364E+03  0.000E+00  1.200E+01  6.000E-01  1.000E+00
   1   12    7     6     4    0.0000E+00  0.0000E+00   0.0000E+00  0.000E+00  0.000E+00  0.000E+00  1.02909E+03  0.000E+00  1.200E+01  6.000E-01  4.139E-01
   1   13    7     6     5    0.0000E+00 -7.6348E-01   7.6348E-01  0.000E+00  0.000E+00  0.000E+00  1.02601E+03  9.932E-02  1.200E+01  2.400E-01 -1.060E+00
   1   14    9     7     1    1.5000E+02  2.1630E+00   1.4784E+02  0.000E+00  0.000E+00  0.000E+00  1.03987E+03  2.286E+00  5.528E+01  5.592E+00  1.289E-01
   1   13    8     7     2    1.4784E+02  3.1856E+00   1.4465E+02  0.000E+00  0.000E+00  0.000E+00  1.03477E+03  2.271E+00  5.522E+01  6.143E+00  1.728E-01
   1   13    7     7     3    1.4465E+02  2.7061E+00   1.4195E+02  0.000E+00  0.000E+00  0.000E+00  1.02967E+03  2.255E+00  5.515E+01  5.577E+00  1.617E-01
   1   13    6     8     1    1.4271E+02  1.0330E+00   1.4168E+02  0.000E+00  0.000E+00  0.000E+00  1.02464E+03  2.761E+00  4.003E+01  4.080E+00  8.440E-02
   1   13    5     8     2    1.4168E+02 -1.7267E+00   1.4340E+02  0.000E+00  0.000E+00  0.000E+00  1.01839E+03  2.763E+00  4.007E+01  4.083E+00 -1.410E-01
   1   13    4     8     3    1.4340E+02 -3.4984E+00   1.4690E+02  0.000E+00  0.000E+00  0.000E+00  1.01216E+03  2.782E+00  4.034E+01  4.111E+00 -2.837E-01
   1   13    3     8     4    1.4690E+02 -3.8412E+00   1.5074E+02  0.000E+00  0.000E+00  0.000E+00  1.00593E+03  2.809E+00  4.072E+01  4.150E+00 -3.085E-01
   1   13    2     8     5    1.5074E+02 -1.9298E+00   1.5267E+02  0.000E+00  0.000E+00  0.000E+00  9.99704E+02  2.829E+00  4.102E+01  4.180E+00 -1.539E-01
   1   13    1     8     6    1.5267E+02 -4.1158E-01   1.5308E+02  0.000E+00  0.000E+00  0.000E+00  9.94712E+02  2.837E+00  4.114E+01  2.515E+00 -5.455E-02



 UBDSV3 SAVING "           GW ET" ON UNIT  61 AT TIME STEP  1, STRESS PERIOD   2
 UBDSV3 SAVING "    UZF RECHARGE" ON UNIT  61 AT TIME STEP  1, STRESS PERIOD   2
 UBDSV3 SAVING " SURFACE LEAKAGE" ON UNIT  61 AT TIME STEP  1, STRESS PERIOD   2
 UBDSV3 SAVING "       HORT+DUNN" ON UNIT  61 AT TIME STEP  1, STRESS PERIOD   2
 UBDSV3 SAVING "  STORAGE CHANGE" ON UNIT  61 AT TIME STEP  1, STRESS PERIOD   2


UNSATURATED ZONE PACKAGE VOLUMETRIC BUDGET FOR  TIME STEP     1 STRESS PERIOD    2
  ------------------------------------------------------------------------------



     CUMULATIVE VOLUMES      L**3       RATES FOR THIS TIME STEP      L**3/T
     ------------------                 ------------------------

           IN:                                      IN:
           ---                                      ---
        INFILTRATION =    27880246.0039          INFILTRATION =          67.8000

          OUT:                                     OUT:
          ----                                     ----
              UZF ET =    10303149.8125                UZF ET =         124.5650
        UZF RECHARGE =    23077254.3772          UZF RECHARGE =           9.7319

            IN - OUT =    -5500158.1858              IN - OUT =         -66.4968

          STORAGE:                                 STORAGE:
          --------                                 --------
      STORAGE CHANGE =    -5499040.5799        STORAGE CHANGE =         -66.4833

 PERCENT DISCREPANCY IS DIFFERENCE BETWEEN IN-OUT MINUS CHANGE IN STORAGE
 DIVIDED BY THE AVERAGE OF IN AND OUT TIMES 100

 PERCENT DISCREPANCY =          -0.00     PERCENT DISCREPANCY =          -0.01






1
  VOLUMETRIC BUDGET FOR ENTIRE MODEL AT END OF TIME STEP    1, STRESS PERIOD   2
  ------------------------------------------------------------------------------

     CUMULATIVE VOLUMES      L**3       RATES FOR THIS TIME STEP      L**3/T
     ------------------                 ------------------------

           IN:                                      IN:
           ---                                      ---
             STORAGE =        2892.7361               STORAGE =       3.4973E-02
       CONSTANT HEAD =           0.0000         CONSTANT HEAD =           0.0000
               WELLS =           0.0000                 WELLS =           0.0000
     HEAD DEP BOUNDS =      569085.6250       HEAD DEP BOUNDS =           0.2098
      STREAM LEAKAGE =   119690440.0000        STREAM LEAKAGE =          44.0877
        UZF RECHARGE =    23077270.0000          UZF RECHARGE =           9.7319
               GW ET =           0.0000                 GW ET =           0.0000
     SURFACE LEAKAGE =           0.0000       SURFACE LEAKAGE =           0.0000

            TOTAL IN =   143339680.0000              TOTAL IN =          54.0644

          OUT:                                     OUT:
          ----                                     ----
             STORAGE =      666433.0000               STORAGE =           8.0572
       CONSTANT HEAD =           0.0000         CONSTANT HEAD =           0.0000
               WELLS =    54214260.0000                 WELLS =          20.0000
     HEAD DEP BOUNDS =      708008.5625       HEAD DEP BOUNDS =           0.2613
      STREAM LEAKAGE =    32926374.0000        STREAM LEAKAGE =          12.1712
        UZF RECHARGE =           0.0000          UZF RECHARGE =           0.0000
               GW ET =    54823344.0000                 GW ET =          13.5413
     SURFACE LEAKAGE =           0.0000       SURFACE LEAKAGE =           0.0000

           TOTAL OUT =   143338416.0000             TOTAL OUT =          54.0309

            IN - OUT =        1264.0000              IN - OUT =       3.3443E-02

 PERCENT DISCREPANCY =           0.00     PERCENT DISCREPANCY =           0.06






         TIME SUMMARY AT END OF TIME STEP    1 IN STRESS PERIOD    2
                    SECONDS     MINUTES      HOURS       DAYS        YEARS
                    -----------------------------------------------------------
   TIME STEP LENGTH  82713.      1378.6      22.976     0.95733     2.62102E-03
 STRESS PERIOD TIME  82713.      1378.6      22.976     0.95733     2.62102E-03
         TOTAL TIME 2.71071E+06  45179.      752.98      31.374     8.58973E-02
1
 
 SOLVING FOR HEAD 
     6 ITERATIONS FOR TIME STEP   2 IN STRESS PERIOD    2

 MAXIMUM HEAD CHANGE FOR EACH ITERATION:

    HEAD CHANGE   HEAD CHANGE   HEAD CHANGE   HEAD CHANGE   HEAD CHANGE
  LAYER,ROW,COL LAYER,ROW,COL LAYER,ROW,COL LAYER,ROW,COL LAYER,ROW,COL
 ----------------------------------------------------------------------
     0.8656E-02    0.3407E-02    0.1351E-02    0.5489E-03    0.2023E-03
  (  1,  3,  5) (  1,  3,  5) (  1,  3,  5) (  1,  3,  5) (  1,  3,  6)
     0.8860E-04
  (  1,  3,  5)


 OUTPUT CONTROL WAS SPECIFIED FOR A NONEXISTENT TIME STEP
 OR OUTPUT CONTROL DATA ARE NOT ENTERED IN ASCENDING ORDER
 OUTPUT CONTROL STRESS PERIOD    1   TIME STEP   10
 MODEL STRESS PERIOD    2   TIME STEP    2
 APPLYING THE SPECIFIED OUTPUT CONTROL TO THE CURRENT TIME STEP

 OUTPUT CONTROL FOR STRESS PERIOD    2   TIME STEP    2
    PRINT BUDGET
    SAVE BUDGET

            WELLS   PERIOD    2   STEP   2
 WELL      1   LAYER   1   ROW     6   COL     4   RATE    -2.00000    
 WELL      2   LAYER   1   ROW     6   COL     5   RATE    -2.00000    
 WELL      3   LAYER   1   ROW     7   COL     4   RATE    -2.00000    
 WELL      4   LAYER   1   ROW     7   COL     5   RATE    -2.00000    
 WELL      5   LAYER   1   ROW     8   COL     4   RATE    -2.00000    
 WELL      6   LAYER   1   ROW     8   COL     5   RATE    -2.00000    
 WELL      7   LAYER   1   ROW     9   COL     4   RATE    -2.00000    
 WELL      8   LAYER   1   ROW     9   COL     5   RATE    -2.00000    
 WELL      9   LAYER   1   ROW    10   COL     4   RATE    -2.00000    
 WELL     10   LAYER   1   ROW    10   COL     5   RATE    -2.00000    

  HEAD DEP BOUNDS   PERIOD    2   STEP   2
 BOUNDARY      1   LAYER   1   ROW    13   COL     1   RATE   -0.261362    
 BOUNDARY      2   LAYER   1   ROW    14   COL     9   RATE    0.209627    



 STREAM LISTING     PERIOD      2   STEP        2

 LAYER ROW COL. STREAM  RCH.  FLOW INTO     FLOW TO   FLOW OUT OF   OVRLND.     DIRECT     STREAM       STREAM     STREAM     STREAM   STREAMBED  STREAMBED
                SEG.NO.  NO.  STRM. RCH.    AQUIFER    STRM. RCH.    RUNOFF     PRECIP       ET          HEAD       DEPTH      WIDTH   CONDCTNC.   GRADIENT

   1    1    1     1     1    2.5000E+01  1.0738E+00   2.3926E+01  0.000E+00  0.000E+00  0.000E+00  1.09422E+03  1.172E+00  1.296E+01  5.830E-01  6.140E-01
   1    2    2     1     2    2.3926E+01  3.1430E+00   2.0783E+01  0.000E+00  0.000E+00  0.000E+00  1.08920E+03  1.139E+00  1.252E+01  8.763E-01  1.196E+00
   1    3    3     1     3    2.0783E+01  2.8952E+00   1.7888E+01  0.000E+00  0.000E+00  0.000E+00  1.08351E+03  1.089E+00  1.180E+01  7.080E-01  1.363E+00
   1    3    4     1     4    1.7888E+01  2.4587E+00   1.5429E+01  0.000E+00  0.000E+00  0.000E+00  1.07845E+03  1.043E+00  1.096E+01  6.081E-01  1.348E+00
   1    4    5     2     1    5.4292E+00  2.6584E+00   2.7709E+00  0.000E+00  0.000E+00  0.000E+00  1.07234E+03  4.081E-01  1.200E+01  7.800E-01  1.136E+00
   1    5    6     2     2    2.7709E+00  1.9492E+00   8.2164E-01  0.000E+00  0.000E+00  0.000E+00  1.06676E+03  2.487E-01  1.200E+01  6.000E-01  1.083E+00
   1    6    6     2     3    8.2164E-01  8.2164E-01   0.0000E+00  0.000E+00  0.000E+00  0.000E+00  1.06183E+03  3.500E-02  1.200E+01  6.000E-01  1.012E+00
   1    7    6     2     4    0.0000E+00  0.0000E+00   0.0000E+00  0.000E+00  0.000E+00  0.000E+00  1.05708E+03  0.000E+00  1.200E+01  6.000E-01  1.000E+00
   1    8    6     2     5    0.0000E+00  0.0000E+00   0.0000E+00  0.000E+00  0.000E+00  0.000E+00  1.05236E+03  0.000E+00  1.200E+01  6.000E-01  1.000E+00
   1    3    5     3     1    1.0000E+01  2.8252E+00   7.1748E+00  0.000E+00  0.000E+00  0.000E+00  1.07555E+03  1.909E+00  9.636E+00  7.227E-01  1.955E+00
   1    3    6     3     2    7.1748E+00  2.2654E+00   4.9094E+00  0.000E+00  0.000E+00  0.000E+00  1.07264E+03  1.727E+00  8.909E+00  6.682E-01  1.695E+00
   1    3    7     3     3    4.9094E+00  1.1511E+00   3.7583E+00  0.000E+00  0.000E+00  0.000E+00  1.06987E+03  1.555E+00  8.218E+00  5.547E-01  1.038E+00
   1    4    8     3     4    3.7583E+00  1.6729E+00   2.0854E+00  0.000E+00  0.000E+00  0.000E+00  1.06682E+03  1.364E+00  7.455E+00  6.709E-01  1.247E+00
   1    5    8     3     5    2.0854E+00  1.5790E+00   5.0640E-01  0.000E+00  0.000E+00  0.000E+00  1.06362E+03  1.164E+00  6.655E+00  4.991E-01  1.582E+00
   1    6    8     3     6    5.0640E-01  5.0640E-01   0.0000E+00  0.000E+00  0.000E+00  0.000E+00  1.06158E+03  0.000E+00  6.145E+00  1.844E-01  1.518E+00
   1    5   10     4     1    1.0000E+01  9.0525E-01   9.0947E+00  0.000E+00  0.000E+00  0.000E+00  1.07835E+03  6.210E-01  1.000E+01  2.500E-01  1.207E+00
   1    5    9     4     2    9.0947E+00  1.7835E+00   7.3113E+00  0.000E+00  0.000E+00  0.000E+00  1.07148E+03  5.670E-01  1.000E+01  5.000E-01  1.189E+00
   1    6    8     4     3    7.3113E+00  1.2257E+00   6.0855E+00  0.000E+00  0.000E+00  0.000E+00  1.06368E+03  5.021E-01  1.000E+01  3.500E-01  1.167E+00
   1    6    8     5     1    6.0855E+00  1.0280E+00   5.0576E+00  0.000E+00  0.000E+00  0.000E+00  1.05855E+03  5.473E-01  1.065E+01  4.260E-01  8.043E-01
   1    7    7     5     2    5.0576E+00  1.5868E+00   3.4708E+00  0.000E+00  0.000E+00  0.000E+00  1.05400E+03  4.984E-01  9.072E+00  4.536E-01  1.166E+00
   1    8    7     5     3    3.4708E+00  8.8957E-01   2.5812E+00  0.000E+00  0.000E+00  0.000E+00  1.04969E+03  4.420E-01  7.384E+00  2.584E-01  1.147E+00
   1    8    6     5     4    2.5812E+00  5.3469E-01   2.0465E+00  0.000E+00  0.000E+00  0.000E+00  1.04665E+03  4.024E-01  6.286E+00  1.572E-01  1.134E+00
   1    9    6     6     1    2.0465E+00  1.9119E+00   1.3465E-01  0.000E+00  0.000E+00  0.000E+00  1.04291E+03  1.864E-01  1.200E+01  6.000E-01  1.062E+00
   1   10    7     6     2    1.3465E-01  1.3465E-01   0.0000E+00  0.000E+00  0.000E+00  0.000E+00  1.03819E+03  1.196E-02  1.200E+01  6.000E-01  1.004E+00
   1   11    7     6     3    0.0000E+00  0.0000E+00   0.0000E+00  0.000E+00  0.000E+00  0.000E+00  1.03364E+03  0.000E+00  1.200E+01  6.000E-01  1.000E+00
   1   12    7     6     4    0.0000E+00  0.0000E+00   0.0000E+00  0.000E+00  0.000E+00  0.000E+00  1.02909E+03  0.000E+00  1.200E+01  6.000E-01  4.123E-01
   1   13    7     6     5    0.0000E+00 -7.6418E-01   7.6418E-01  0.000E+00  0.000E+00  0.000E+00  1.02601E+03  9.937E-02  1.200E+01  2.400E-01 -1.061E+00
   1   14    9     7     1    1.5000E+02  2.1404E+00   1.4786E+02  0.000E+00  0.000E+00  0.000E+00  1.03987E+03  2.286E+00  5.529E+01  5.592E+00  1.276E-01
   1   13    8     7     2    1.4786E+02  3.1651E+00   1.4469E+02  0.000E+00  0.000E+00  0.000E+00  1.03477E+03  2.271E+00  5.522E+01  6.143E+00  1.717E-01
   1   13    7     7     3    1.4469E+02  2.6913E+00   1.4200E+02  0.000E+00  0.000E+00  0.000E+00  1.02968E+03  2.256E+00  5.515E+01  5.577E+00  1.608E-01
   1   13    6     8     1    1.4277E+02  1.0235E+00   1.4174E+02  0.000E+00  0.000E+00  0.000E+00  1.02464E+03  2.761E+00  4.004E+01  4.080E+00  8.362E-02
   1   13    5     8     2    1.4174E+02 -1.7302E+00   1.4347E+02  0.000E+00  0.000E+00  0.000E+00  1.01839E+03  2.764E+00  4.008E+01  4.084E+00 -1.412E-01
   1   13    4     8     3    1.4347E+02 -3.5002E+00   1.4697E+02  0.000E+00  0.000E+00  0.000E+00  1.01216E+03  2.783E+00  4.035E+01  4.112E+00 -2.837E-01
   1   13    3     8     4    1.4697E+02 -3.8441E+00   1.5082E+02  0.000E+00  0.000E+00  0.000E+00  1.00593E+03  2.809E+00  4.073E+01  4.151E+00 -3.087E-01
   1   13    2     8     5    1.5082E+02 -1.9439E+00   1.5276E+02  0.000E+00  0.000E+00  0.000E+00  9.99704E+02  2.829E+00  4.103E+01  4.181E+00 -1.550E-01
   1   13    1     8     6    1.5276E+02 -4.1591E-01   1.5318E+02  0.000E+00  0.000E+00  0.000E+00  9.94713E+02  2.838E+00  4.115E+01  2.516E+00 -5.511E-02



 UBDSV3 SAVING "           GW ET" ON UNIT  61 AT TIME STEP  2, STRESS PERIOD   2
 UBDSV3 SAVING "    UZF RECHARGE" ON UNIT  61 AT TIME STEP  2, STRESS PERIOD   2
 UBDSV3 SAVING " SURFACE LEAKAGE" ON UNIT  61 AT TIME STEP  2, STRESS PERIOD   2
 UBDSV3 SAVING "       HORT+DUNN" ON UNIT  61 AT TIME STEP  2, STRESS PERIOD   2
 UBDSV3 SAVING "  STORAGE CHANGE" ON UNIT  61 AT TIME STEP  2, STRESS PERIOD   2


UNSATURATED ZONE PACKAGE VOLUMETRIC BUDGET FOR  TIME STEP     2 STRESS PERIOD    2
  ------------------------------------------------------------------------------



     CUMULATIVE VOLUMES      L**3       RATES FOR THIS TIME STEP      L**3/T
     ------------------                 ------------------------

           IN:                                      IN:
           ---                                      ---
        INFILTRATION =    34048987.2402          INFILTRATION =          67.8000

          OUT:                                     OUT:
          ----                                     ----
              UZF ET =    21635385.6750                UZF ET =         124.5514
        UZF RECHARGE =    23952233.4231          UZF RECHARGE =           9.6168

            IN - OUT =   -11538631.8579              IN - OUT =         -66.3682

          STORAGE:                                 STORAGE:
          --------                                 --------
      STORAGE CHANGE =   -11536211.9910        STORAGE CHANGE =         -66.3539

 PERCENT DISCREPANCY IS DIFFERENCE BETWEEN IN-OUT MINUS CHANGE IN STORAGE
 DIVIDED BY THE AVERAGE OF IN AND OUT TIMES 100

[...]



 UBDSV3 SAVING "           GW ET" ON UNIT  61 AT TIME STEP 10, STRESS PERIOD  12
 UBDSV3 SAVING "    UZF RECHARGE" ON UNIT  61 AT TIME STEP 10, STRESS PERIOD  12
 UBDSV3 SAVING " SURFACE LEAKAGE" ON UNIT  61 AT TIME STEP 10, STRESS PERIOD  12
 UBDSV3 SAVING "       HORT+DUNN" ON UNIT  61 AT TIME STEP 10, STRESS PERIOD  12
 UBDSV3 SAVING "  STORAGE CHANGE" ON UNIT  61 AT TIME STEP 10, STRESS PERIOD  12


UNSATURATED ZONE PACKAGE VOLUMETRIC BUDGET FOR  TIME STEP    10 STRESS PERIOD   12
  ------------------------------------------------------------------------------



     CUMULATIVE VOLUMES      L**3       RATES FOR THIS TIME STEP      L**3/T
     ------------------                 ------------------------

           IN:                                      IN:
           ---                                      ---
        INFILTRATION =  1525688304.5068          INFILTRATION =           8.4750

          OUT:                                     OUT:
          ----                                     ----
              UZF ET =  2090250758.8936                UZF ET =          34.1064
        UZF RECHARGE =   373969783.5584          UZF RECHARGE =           9.3050

            IN - OUT =  -938532237.9452              IN - OUT =         -34.9364

          STORAGE:                                 STORAGE:
          --------                                 --------
      STORAGE CHANGE =  -938322972.4836        STORAGE CHANGE =         -34.9345

 PERCENT DISCREPANCY IS DIFFERENCE BETWEEN IN-OUT MINUS CHANGE IN STORAGE
 DIVIDED BY THE AVERAGE OF IN AND OUT TIMES 100

 PERCENT DISCREPANCY =          -0.00     PERCENT DISCREPANCY =          -0.00






1
  VOLUMETRIC BUDGET FOR ENTIRE MODEL AT END OF TIME STEP   10, STRESS PERIOD  12
  ------------------------------------------------------------------------------

     CUMULATIVE VOLUMES      L**3       RATES FOR THIS TIME STEP      L**3/T
     ------------------                 ------------------------

           IN:                                      IN:
           ---                                      ---
             STORAGE =   126942560.0000               STORAGE =           0.9498
       CONSTANT HEAD =           0.0000         CONSTANT HEAD =           0.0000
               WELLS =           0.0000                 WELLS =           0.0000
     HEAD DEP BOUNDS =     6315604.5000       HEAD DEP BOUNDS =           0.2094
      STREAM LEAKAGE =  1304172800.0000        STREAM LEAKAGE =          43.3177
        UZF RECHARGE =   373969728.0000          UZF RECHARGE =           9.3050
               GW ET =           0.0000                 GW ET =           0.0000
     SURFACE LEAKAGE =           0.0000       SURFACE LEAKAGE =           0.0000

            TOTAL IN =  1811400704.0000              TOTAL IN =          53.7819

          OUT:                                     OUT:
          ----                                     ----
             STORAGE =   476188320.0000               STORAGE =          21.0036
       CONSTANT HEAD =           0.0000         CONSTANT HEAD =           0.0000
               WELLS =   394199936.0000                 WELLS =           0.0000
     HEAD DEP BOUNDS =     7963198.0000       HEAD DEP BOUNDS =           0.2627
      STREAM LEAKAGE =   404666112.0000        STREAM LEAKAGE =          13.0884
        UZF RECHARGE =           0.0000          UZF RECHARGE =           0.0000
               GW ET =   528213536.0000                 GW ET =          19.4146
     SURFACE LEAKAGE =           0.0000       SURFACE LEAKAGE =           0.0000

           TOTAL OUT =  1811230976.0000             TOTAL OUT =          53.7693

            IN - OUT =      169728.0000              IN - OUT =       1.2604E-02

 PERCENT DISCREPANCY =           0.01     PERCENT DISCREPANCY =           0.02






         TIME SUMMARY AT END OF TIME STEP   10 IN STRESS PERIOD   12
                    SECONDS     MINUTES      HOURS       DAYS        YEARS
                    -----------------------------------------------------------
   TIME STEP LENGTH 1.95033E+05  3250.6      54.176      2.2573     6.18023E-03
 STRESS PERIOD TIME 1.31823E+06  21971.      366.18      15.257     4.17723E-02
         TOTAL TIME 3.02262E+07 5.03770E+05  8396.2      349.84     0.95781    
1
 
 SOLVING FOR HEAD 
     9 ITERATIONS FOR TIME STEP  11 IN STRESS PERIOD   12

 MAXIMUM HEAD CHANGE FOR EACH ITERATION:

    HEAD CHANGE   HEAD CHANGE   HEAD CHANGE   HEAD CHANGE   HEAD CHANGE
  LAYER,ROW,COL LAYER,ROW,COL LAYER,ROW,COL LAYER,ROW,COL LAYER,ROW,COL
 ----------------------------------------------------------------------
     0.4553E-01    0.1537E-01    0.7468E-02    0.3558E-02    0.1710E-02
  (  1,  7,  4) (  1, 15,  4) (  1, 15,  4) (  1, 15,  4) (  1, 15,  4)
     0.8748E-03    0.3747E-03    0.2080E-03    0.1082E-03
  (  1, 15,  4) (  1, 15,  4) (  1, 15,  4) (  1, 15,  4)


 NO OUTPUT CONTROL FOR STRESS PERIOD   12   TIME STEP   11
 
 SOLVING FOR HEAD 
     9 ITERATIONS FOR TIME STEP  12 IN STRESS PERIOD   12

 MAXIMUM HEAD CHANGE FOR EACH ITERATION:

    HEAD CHANGE   HEAD CHANGE   HEAD CHANGE   HEAD CHANGE   HEAD CHANGE
  LAYER,ROW,COL LAYER,ROW,COL LAYER,ROW,COL LAYER,ROW,COL LAYER,ROW,COL
 ----------------------------------------------------------------------
     0.4913E-01    0.1604E-01    0.7674E-02    0.3731E-02    0.1771E-02
  (  1,  7,  4) (  1, 15,  4) (  1, 15,  4) (  1, 15,  4) (  1, 15,  4)
     0.8665E-03    0.3928E-03    0.2059E-03    0.1034E-03
  (  1, 15,  4) (  1, 15,  4) (  1, 10, 10) (  1, 15,  4)


 NO OUTPUT CONTROL FOR STRESS PERIOD   12   TIME STEP   12
 
 SOLVING FOR HEAD 
     9 ITERATIONS FOR TIME STEP  13 IN STRESS PERIOD   12

 MAXIMUM HEAD CHANGE FOR EACH ITERATION:

    HEAD CHANGE   HEAD CHANGE   HEAD CHANGE   HEAD CHANGE   HEAD CHANGE
  LAYER,ROW,COL LAYER,ROW,COL LAYER,ROW,COL LAYER,ROW,COL LAYER,ROW,COL
 ----------------------------------------------------------------------
     0.5299E-01    0.1722E-01    0.8189E-02    0.3970E-02    0.1919E-02
  (  1,  7,  4) (  1, 15,  4) (  1, 15,  4) (  1, 15,  4) (  1, 15,  4)
     0.8664E-03    0.4146E-03    0.2437E-03    0.1290E-03
  (  1, 15,  4) (  1, 15,  4) (  1, 15,  4) (  1, 15,  4)


 NO OUTPUT CONTROL FOR STRESS PERIOD   12   TIME STEP   13
 
 SOLVING FOR HEAD 
     8 ITERATIONS FOR TIME STEP  14 IN STRESS PERIOD   12

 MAXIMUM HEAD CHANGE FOR EACH ITERATION:

    HEAD CHANGE   HEAD CHANGE   HEAD CHANGE   HEAD CHANGE   HEAD CHANGE
  LAYER,ROW,COL LAYER,ROW,COL LAYER,ROW,COL LAYER,ROW,COL LAYER,ROW,COL
 ----------------------------------------------------------------------
     0.5697E-01    0.1784E-01    0.8521E-02    0.4092E-02    0.1968E-02
  (  1,  8,  4) (  1, 15,  4) (  1, 15,  4) (  1, 15,  4) (  1, 15,  4)
     0.9242E-03    0.4500E-03    0.1785E-03
  (  1, 15,  4) (  1, 15,  4) (  1, 15,  4)


 NO OUTPUT CONTROL FOR STRESS PERIOD   12   TIME STEP   14
 
 SOLVING FOR HEAD 
     9 ITERATIONS FOR TIME STEP  15 IN STRESS PERIOD   12

 MAXIMUM HEAD CHANGE FOR EACH ITERATION:

    HEAD CHANGE   HEAD CHANGE   HEAD CHANGE   HEAD CHANGE   HEAD CHANGE
  LAYER,ROW,COL LAYER,ROW,COL LAYER,ROW,COL LAYER,ROW,COL LAYER,ROW,COL
 ----------------------------------------------------------------------
     0.6182E-01    0.2330E-01    0.1124E-01    0.5419E-02    0.2644E-02
  (  1,  8,  4) (  1, 15,  3) (  1, 15,  3) (  1, 15,  3) (  1, 15,  3)
     0.1260E-02    0.5934E-03    0.3138E-03    0.1115E-03
  (  1, 15,  3) (  1, 15,  3) (  1, 15,  3) (  1, 15,  3)


 OUTPUT CONTROL FOR STRESS PERIOD   12   TIME STEP   15
    PRINT BUDGET
    PRINT HEAD FOR ALL LAYERS
    SAVE HEAD FOR ALL LAYERS
    SAVE BUDGET

  HEAD DEP BOUNDS   PERIOD   12   STEP  15
 BOUNDARY      1   LAYER   1   ROW    13   COL     1   RATE   -0.262630    
 BOUNDARY      2   LAYER   1   ROW    14   COL     9   RATE    0.209593    



 STREAM LISTING     PERIOD     12   STEP       15

 LAYER ROW COL. STREAM  RCH.  FLOW INTO     FLOW TO   FLOW OUT OF   OVRLND.     DIRECT     STREAM       STREAM     STREAM     STREAM   STREAMBED  STREAMBED
                SEG.NO.  NO.  STRM. RCH.    AQUIFER    STRM. RCH.    RUNOFF     PRECIP       ET          HEAD       DEPTH      WIDTH   CONDCTNC.   GRADIENT

   1    1    1     1     1    2.5000E+01  1.0767E+00   2.3923E+01  0.000E+00  0.000E+00  0.000E+00  1.09422E+03  1.172E+00  1.295E+01  5.830E-01  6.157E-01
   1    2    2     1     2    2.3923E+01  3.0800E+00   2.0843E+01  0.000E+00  0.000E+00  0.000E+00  1.08920E+03  1.140E+00  1.252E+01  8.767E-01  1.171E+00
   1    3    3     1     3    2.0843E+01  2.9002E+00   1.7943E+01  0.000E+00  0.000E+00  0.000E+00  1.08351E+03  1.090E+00  1.182E+01  7.090E-01  1.363E+00
   1    3    4     1     4    1.7943E+01  2.4632E+00   1.5480E+01  0.000E+00  0.000E+00  0.000E+00  1.07845E+03  1.044E+00  1.097E+01  6.091E-01  1.348E+00
   1    4    5     2     1    5.4799E+00  2.6607E+00   2.8193E+00  0.000E+00  0.000E+00  0.000E+00  1.07235E+03  4.111E-01  1.200E+01  7.800E-01  1.137E+00
   1    5    6     2     2    2.8193E+00  1.9516E+00   8.6768E-01  0.000E+00  0.000E+00  0.000E+00  1.06676E+03  2.527E-01  1.200E+01  6.000E-01  1.084E+00
   1    6    6     2     3    8.6768E-01  8.6768E-01   0.0000E+00  0.000E+00  0.000E+00  0.000E+00  1.06183E+03  3.617E-02  1.200E+01  6.000E-01  1.012E+00
   1    7    6     2     4    0.0000E+00  0.0000E+00   0.0000E+00  0.000E+00  0.000E+00  0.000E+00  1.05708E+03  0.000E+00  1.200E+01  6.000E-01  1.000E+00
   1    8    6     2     5    0.0000E+00  0.0000E+00   0.0000E+00  0.000E+00  0.000E+00  0.000E+00  1.05236E+03  0.000E+00  1.200E+01  6.000E-01  1.000E+00
   1    3    5     3     1    1.0000E+01  2.8252E+00   7.1748E+00  0.000E+00  0.000E+00  0.000E+00  1.07555E+03  1.909E+00  9.636E+00  7.227E-01  1.955E+00
   1    3    6     3     2    7.1748E+00  1.9444E+00   5.2304E+00  0.000E+00  0.000E+00  0.000E+00  1.07264E+03  1.727E+00  8.909E+00  6.682E-01  1.455E+00
   1    3    7     3     3    5.2304E+00  9.3575E-01   4.2947E+00  0.000E+00  0.000E+00  0.000E+00  1.06987E+03  1.555E+00  8.218E+00  5.547E-01  8.434E-01
   1    4    8     3     4    4.2947E+00  1.5800E+00   2.7147E+00  0.000E+00  0.000E+00  0.000E+00  1.06682E+03  1.364E+00  7.455E+00  6.709E-01  1.178E+00
   1    5    8     3     5    2.7147E+00  1.5790E+00   1.1357E+00  0.000E+00  0.000E+00  0.000E+00  1.06362E+03  1.164E+00  6.655E+00  4.991E-01  1.582E+00
   1    6    8     3     6    1.1357E+00  5.5980E-01   5.7590E-01  0.000E+00  0.000E+00  0.000E+00  1.06158E+03  1.036E+00  6.145E+00  1.844E-01  1.518E+00
   1    5   10     4     1    1.0000E+01  9.0525E-01   9.0947E+00  0.000E+00  0.000E+00  0.000E+00  1.07835E+03  6.210E-01  1.000E+01  2.500E-01  1.207E+00
   1    5    9     4     2    9.0947E+00  1.7835E+00   7.3113E+00  0.000E+00  0.000E+00  0.000E+00  1.07148E+03  5.670E-01  1.000E+01  5.000E-01  1.189E+00
   1    6    8     4     3    7.3113E+00  1.2257E+00   6.0855E+00  0.000E+00  0.000E+00  0.000E+00  1.06368E+03  5.021E-01  1.000E+01  3.500E-01  1.167E+00
   1    6    8     5     1    6.6614E+00  8.1260E-01   5.8488E+00  0.000E+00  0.000E+00  0.000E+00  1.05857E+03  5.699E-01  1.142E+01  4.567E-01  5.932E-01
   1    7    7     5     2    5.8488E+00  1.6278E+00   4.2210E+00  0.000E+00  0.000E+00  0.000E+00  1.05403E+03  5.282E-01  1.002E+01  5.011E-01  1.083E+00
   1    8    7     5     3    4.2210E+00  1.0154E+00   3.2056E+00  0.000E+00  0.000E+00  0.000E+00  1.04972E+03  4.748E-01  8.349E+00  2.922E-01  1.158E+00
   1    8    6     5     4    3.2056E+00  5.8972E-01   2.6159E+00  0.000E+00  0.000E+00  0.000E+00  1.04669E+03  4.360E-01  7.214E+00  1.804E-01  1.090E+00
   1    9    6     6     1    2.6159E+00  1.9431E+00   6.7276E-01  0.000E+00  0.000E+00  0.000E+00  1.04297E+03  2.385E-01  1.200E+01  6.000E-01  1.080E+00
   1   10    7     6     2    6.7276E-01  6.7276E-01   0.0000E+00  0.000E+00  0.000E+00  0.000E+00  1.03821E+03  3.140E-02  1.200E+01  6.000E-01  1.010E+00
   1   11    7     6     3    0.0000E+00  0.0000E+00   0.0000E+00  0.000E+00  0.000E+00  0.000E+00  1.03364E+03  0.000E+00  1.200E+01  6.000E-01  9.834E-01
   1   12    7     6     4    0.0000E+00  0.0000E+00   0.0000E+00  0.000E+00  0.000E+00  0.000E+00  1.02909E+03  0.000E+00  1.200E+01  6.000E-01  2.605E-01
   1   13    7     6     5    0.0000E+00 -7.7560E-01   7.7560E-01  0.000E+00  0.000E+00  0.000E+00  1.02601E+03  1.003E-01  1.200E+01  2.400E-01 -1.077E+00
   1   14    9     7     1    1.5000E+02  2.1355E+00   1.4786E+02  0.000E+00  0.000E+00  0.000E+00  1.03987E+03  2.286E+00  5.529E+01  5.592E+00  1.273E-01
   1   13    8     7     2    1.4786E+02  3.1056E+00   1.4476E+02  0.000E+00  0.000E+00  0.000E+00  1.03477E+03  2.272E+00  5.522E+01  6.144E+00  1.685E-01
   1   13    7     7     3    1.4476E+02  2.4270E+00   1.4233E+02  0.000E+00  0.000E+00  0.000E+00  1.02968E+03  2.257E+00  5.516E+01  5.578E+00  1.450E-01
   1   13    6     8     1    1.4311E+02  7.1015E-01   1.4240E+02  0.000E+00  0.000E+00  0.000E+00  1.02464E+03  2.765E+00  4.009E+01  4.086E+00  5.794E-02
   1   13    5     8     2    1.4240E+02 -2.0518E+00   1.4445E+02  0.000E+00  0.000E+00  0.000E+00  1.01839E+03  2.770E+00  4.016E+01  4.093E+00 -1.671E-01
   1   13    4     8     3    1.4445E+02 -3.7628E+00   1.4821E+02  0.000E+00  0.000E+00  0.000E+00  1.01217E+03  2.791E+00  4.047E+01  4.124E+00 -3.042E-01
   1   13    3     8     4    1.4821E+02 -3.9792E+00   1.5219E+02  0.000E+00  0.000E+00  0.000E+00  1.00594E+03  2.818E+00  4.086E+01  4.164E+00 -3.185E-01
   1   13    2     8     5    1.5219E+02 -1.9972E+00   1.5419E+02  0.000E+00  0.000E+00  0.000E+00  9.99714E+02  2.839E+00  4.117E+01  4.195E+00 -1.587E-01
   1   13    1     8     6    1.5419E+02 -4.7612E-01   1.5466E+02  0.000E+00  0.000E+00  0.000E+00  9.94723E+02  2.848E+00  4.129E+01  2.525E+00 -6.286E-02



 UBDSV3 SAVING "           GW ET" ON UNIT  61 AT TIME STEP 15, STRESS PERIOD  12
 UBDSV3 SAVING "    UZF RECHARGE" ON UNIT  61 AT TIME STEP 15, STRESS PERIOD  12
 UBDSV3 SAVING " SURFACE LEAKAGE" ON UNIT  61 AT TIME STEP 15, STRESS PERIOD  12
 UBDSV3 SAVING "       HORT+DUNN" ON UNIT  61 AT TIME STEP 15, STRESS PERIOD  12
 UBDSV3 SAVING "  STORAGE CHANGE" ON UNIT  61 AT TIME STEP 15, STRESS PERIOD  12


UNSATURATED ZONE PACKAGE VOLUMETRIC BUDGET FOR  TIME STEP    15 STRESS PERIOD   12
  ------------------------------------------------------------------------------



     CUMULATIVE VOLUMES      L**3       RATES FOR THIS TIME STEP      L**3/T
     ------------------                 ------------------------

           IN:                                      IN:
           ---                                      ---
        INFILTRATION =  1536788574.2900          INFILTRATION =           8.4750

          OUT:                                     OUT:
          ----                                     ----
              UZF ET =  2130440880.2432                UZF ET =          29.5380
        UZF RECHARGE =   386764908.8748          UZF RECHARGE =          11.2564

            IN - OUT =  -980417214.8279              IN - OUT =         -32.3194

          STORAGE:                                 STORAGE:
          --------                                 --------
      STORAGE CHANGE =  -980288831.9365        STORAGE CHANGE =         -32.4173

 PERCENT DISCREPANCY IS DIFFERENCE BETWEEN IN-OUT MINUS CHANGE IN STORAGE
 DIVIDED BY THE AVERAGE OF IN AND OUT TIMES 100

 PERCENT DISCREPANCY =          -0.00     PERCENT DISCREPANCY =           0.24






1
              HEAD IN LAYER   1 AT END OF TIME STEP  15 IN STRESS PERIOD   12
  ---------------------------------------------------------------------------

           1       2       3       4       5       6       7       8       9      10
 ...................................................................................
   1  1092.37 1088.62 6999.00 6999.00 6999.00 6999.00 6999.00 6999.00 6999.00 6999.00
   2  1089.01 1085.69 1079.29 6999.00 6999.00 1073.63 1072.54 1070.97 6999.00 6999.00
   3  6999.00 1077.38 1074.53 1070.40 1070.89 1069.73 1068.19 1067.88 6999.00 6999.00
   4  1069.51 1068.75 1067.10 1063.68 1062.51 1061.22 1061.78 1064.46 1063.91 6999.00
   5  1065.40 1061.88 1059.39 1057.54 1057.25 1057.77 1057.60 1059.59 1063.01 1065.39
   6  1060.65 1056.02 1053.11 1051.72 1052.00 1053.32 1054.52 1056.79 1059.55 1063.66
   7  1056.94 1050.38 1047.40 1046.23 1046.83 1048.45 1050.78 1053.10 1054.36 6999.00
   8  6999.00 1042.92 1041.40 1040.73 1041.58 1043.42 1045.19 1047.54 1049.31 6999.00
   9  6999.00 1035.92 1035.35 1035.29 1036.46 1038.47 1039.35 1041.08 1043.88 6999.00
  10  6999.00 1028.78 1029.18 1030.18 1031.62 1033.35 1034.61 1036.48 1040.18 1045.30
  11  6999.00 1019.85 1021.63 1025.14 1027.16 1029.22 1030.69 1032.96 1036.39 6999.00
  12  1001.21 1008.88 1014.17 1019.07 1022.71 1025.93 1028.31 1031.01 1034.88 6999.00
  13   994.91 1000.19 1006.90 1013.08 1018.90 1024.47 1029.24 1034.27 1036.38 6999.00
  14  6999.00 1005.79 1011.36 1016.09 1021.14 1025.87 1030.11 1035.21 1039.48 6999.00
  15  6999.00 6999.00 1018.96 1022.40 1026.57 1029.77 6999.00 6999.00 6999.00 6999.00

 HEAD WILL BE SAVED ON UNIT   58 AT END OF TIME STEP   15, STRESS PERIOD   12
1
  VOLUMETRIC BUDGET FOR ENTIRE MODEL AT END OF TIME STEP   15, STRESS PERIOD  12
  ------------------------------------------------------------------------------

     CUMULATIVE VOLUMES      L**3       RATES FOR THIS TIME STEP      L**3/T
     ------------------                 ------------------------

           IN:                                      IN:
           ---                                      ---
             STORAGE =   128127880.0000               STORAGE =           0.8579
       CONSTANT HEAD =           0.0000         CONSTANT HEAD =           0.0000
               WELLS =           0.0000                 WELLS =           0.0000
     HEAD DEP BOUNDS =     6590051.5000       HEAD DEP BOUNDS =           0.2096
      STREAM LEAKAGE =  1360961664.0000        STREAM LEAKAGE =          43.3782
        UZF RECHARGE =   386764864.0000          UZF RECHARGE =          11.2564
               GW ET =           0.0000                 GW ET =           0.0000
     SURFACE LEAKAGE =           0.0000       SURFACE LEAKAGE =           0.0000

            TOTAL IN =  1882444544.0000              TOTAL IN =          55.7021

          OUT:                                     OUT:
          ----                                     ----
             STORAGE =   504144896.0000               STORAGE =          22.7809
       CONSTANT HEAD =           0.0000         CONSTANT HEAD =           0.0000
               WELLS =   394199936.0000                 WELLS =           0.0000
     HEAD DEP BOUNDS =     8307236.0000       HEAD DEP BOUNDS =           0.2626
      STREAM LEAKAGE =   421769216.0000        STREAM LEAKAGE =          13.0428
        UZF RECHARGE =           0.0000          UZF RECHARGE =           0.0000
               GW ET =   553868352.0000                 GW ET =          19.6313
     SURFACE LEAKAGE =           0.0000       SURFACE LEAKAGE =           0.0000

           TOTAL OUT =  1882289664.0000             TOTAL OUT =          55.7176

            IN - OUT =      154880.0000              IN - OUT =      -1.5480E-02

 PERCENT DISCREPANCY =           0.01     PERCENT DISCREPANCY =          -0.03






         TIME SUMMARY AT END OF TIME STEP   15 IN STRESS PERIOD   12
                    SECONDS     MINUTES      HOURS       DAYS        YEARS
                    -----------------------------------------------------------
   TIME STEP LENGTH 3.14103E+05  5235.0      87.251      3.6354     9.95332E-03
 STRESS PERIOD TIME 2.62800E+06  43800.      730.00      30.417     8.32763E-02
         TOTAL TIME 3.15360E+07 5.25600E+05  8760.0      365.00     0.99932    
1

 Run end date and time (yyyy/mm/dd hh:mm:ss): 2017/02/02 12:58:55
 Elapsed run time:  6.691 Seconds

