                                  MODFLOW-NWT-SWR1 
      U.S. GEOLOGICAL SURVEY MODULAR FINITE-DIFFERENCE GROUNDWATER-FLOW MODEL
                            VERSION 1.1.0, 9/11/2015
                    BASED ON MODFLOW-2005 VERSION 1.11.00 08/30/2013

 LIST FILE: swr007.lst
                         UNIT   16

 OPENING swr007.ba6
 FILE TYPE:BAS6   UNIT   15   STATUS:OLD    
 FORMAT:FORMATTED              ACCESS:SEQUENTIAL          

 OPENING swr007.lpf
 FILE TYPE:LPF   UNIT   17   STATUS:OLD    
 FORMAT:FORMATTED              ACCESS:SEQUENTIAL          

 OPENING swr007.wel
 FILE TYPE:WEL   UNIT   12   STATUS:OLD    
 FORMAT:FORMATTED              ACCESS:SEQUENTIAL          

 OPENING swr007.pcg
 FILE TYPE:PCG   UNIT   13   STATUS:OLD    
 FORMAT:FORMATTED              ACCESS:SEQUENTIAL          

 OPENING swr007.oc
 FILE TYPE:OC   UNIT   14   STATUS:OLD    
 FORMAT:FORMATTED              ACCESS:SEQUENTIAL          

 OPENING swr007.swr
 FILE TYPE:SWR   UNIT   11   STATUS:OLD    
 FORMAT:FORMATTED              ACCESS:SEQUENTIAL          

 OPENING swr007.dis
 FILE TYPE:DIS   UNIT   10   STATUS:OLD    
 FORMAT:FORMATTED              ACCESS:SEQUENTIAL          

 OPENING swr007.zon
 FILE TYPE:ZONE   UNIT   18   STATUS:OLD    
 FORMAT:FORMATTED              ACCESS:SEQUENTIAL          

 OPENING swr007.hds
 FILE TYPE:DATA(BINARY)   UNIT   76   STATUS:REPLACE
 FORMAT:UNFORMATTED            ACCESS:STREAM              

 OPENING swr007.cbc
 FILE TYPE:DATA(BINARY)   UNIT   77   STATUS:REPLACE
 FORMAT:UNFORMATTED            ACCESS:STREAM              

 OPENING swr007_swr.flow.csv
 FILE TYPE:DATA   UNIT  101   STATUS:UNKNOWN
 FORMAT:FORMATTED              ACCESS:SEQUENTIAL          

 OPENING swr007_swr.bin
 FILE TYPE:DATA(BINARY)   UNIT  102   STATUS:REPLACE
 FORMAT:UNFORMATTED            ACCESS:STREAM              

 OPENING swr007_swr.baseflow.csv
 FILE TYPE:DATA   UNIT  103   STATUS:UNKNOWN
 FORMAT:FORMATTED              ACCESS:SEQUENTIAL          

 BAS -- BASIC PACKAGE, VERSION 1.0.7, 1/15/2013 INPUT READ FROM UNIT   15
 
 MODFLOW was compiled using uniform precision
 Precision of REAL and DOUBLE PRECISION variables:          15

 DISCRETIZATION INPUT DATA READ FROM UNIT   10
    1 LAYERS        50 ROWS       108 COLUMNS
    1 STRESS PERIOD(S) IN SIMULATION
 MODEL TIME UNIT IS SECONDS
 MODEL LENGTH UNIT IS UNDEFINED
  Confining bed flag for each layer:
   0

                     DELR =   92.5000    

                     DELC =   90.0000    

 TOP ELEVATION OF LAYER 1 =   1.00000    

   MODEL LAYER BOTTOM EL. =   0.00000     FOR LAYER   1


 STRESS PERIOD     LENGTH       TIME STEPS     MULTIPLIER FOR DELT    SS FLAG
 ----------------------------------------------------------------------------
        1         5.000000          1                    1.000         SS

 STEADY-STATE SIMULATION



 
 #Locally Refined Grid:  Simple Heterogeneity                                    
 #Steffen Mehl 02/23/2004-> HETEROGENEOUS and PUMPING WELL                       
 THE FREE FORMAT OPTION HAS BEEN SELECTED
 CALCULATE FLOW BETWEEN ADJACENT CONSTANT-HEAD CELLS

 OPENING FILE ON UNIT   99:
 swr007.ibd                                                                                                                                                                                              



                     BOUNDARY ARRAY FOR LAYER   1
 READING ON UNIT   99 WITH FORMAT: (108I3)             

           1      2      3      4      5      6      7      8      9     10
          11     12     13     14     15     16     17     18     19     20
          21     22     23     24     25     26     27     28     29     30
          31     32     33     34     35     36     37     38     39     40
          41     42     43     44     45     46     47     48     49     50
          51     52     53     54     55     56     57     58     59     60
          61     62     63     64     65     66     67     68     69     70
          71     72     73     74     75     76     77     78     79     80
          81     82     83     84     85     86     87     88     89     90
          91     92     93     94     95     96     97     98     99    100
         101    102    103    104    105    106    107    108
 ..........................................................................
   1      -1      1      1      1      1      1      1      1      1      1
           1      1      1      1      1      1      1      1      1      1
           1      1      1      1      1      1      1      1      1      1
           1      1      1      1      1      1      1      1      1      1
           1      1      1      1      1      1      1      1      1      1
           1      1      1      1      1      1      1      1      1      1
           1      1      1      1      1      1      1      1      1      1
           1      1      1      1      1      1      1      1      1      1
           1      1      1      1      1      1      1      1      1      1
           1      1      1      1      1      1      1      1      1      1
           1      1      1      1      1      1      1     -1
   2      -1      1      1      1      1      1      1      1      1      1
           1      1      1      1      1      1      1      1      1      1
           1      1      1      1      1      1      1      1      1      1
           1      1      1      1      1      1      1      1      1      1
           1      1      1      1      1      1      1      1      1      1
           1      1      1      1      1      1      1      1      1      1
           1      1      1      1      1      1      1      1      1      1
           1      1      1      1      1      1      1      1      1      1
           1      1      1      1      1      1      1      1      1      1
           1      1      1      1      1      1      1      1      1      1
           1      1      1      1      1      1      1     -1
   3      -1      1      1      1      1      1      1      1      1      1
           1      1      1      1      1      1      1      1      1      1
           1      1      1      1      1      1      1      1      1      1
           1      1      1      1      1      1      1      1      1      1
           1      1      1      1      1      1      1      1      1      1
           1      1      1      1      1      1      1      1      1      1
           1      1      1      1      1      1      1      1      1      1
           1      1      1      1      1      1      1      1      1      1
           1      1      1      1      1      1      1      1      1      1
           1      1      1      1      1      1      1      1      1      1
           1      1      1      1      1      1      1     -1
   4      -1      1      1      1      1      1      1      1      1      1
           1      1      1      1      1      1      1      1      1      1
           1      1      1      1      1      1      1      1      1      1
           1      1      1      1      1      1      1      1      1      1
           1      1      1      1      1      1      1      1      1      1
           1      1      1      1      1      1      1      1      1      1
           1      1      1      1      1      1      1      1      1      1
           1      1      1      1      1      1      1      1      1      1
           1      1      1      1      1      1      1      1      1      1
           1      1      1      1      1      1      1      1      1      1
           1      1      1      1      1      1      1     -1
   5      -1      1      1      1      1      1      1      1      1      1
           1      1      1      1      1      1      1      1      1      1
           1      1      1      1      1      1      1      1      1      1
           1      1      1      1      1      1      1      1      1      1
           1      1      1      1      1      1      1      1      1      1
           1      1      1      1      1      1      1      1      1      1
           1      1      1      1      1      1      1      1      1      1
           1      1      1      1      1      1      1      1      1      1
           1      1      1      1      1      1      1      1      1      1
           1      1      1      1      1      1      1      1      1      1
           1      1      1      1      1      1      1     -1
   6      -1      1      1      1      1      1      1      1      1      1
           1      1      1      1      1      1      1      1      1      1
           1      1      1      1      1      1      1      1      1      1
           1      1      1      1      1      1      1      1      1      1
           1      1      1      1      1      1      1      1      1      1
           1      1      1      1      1      1      1      1      1      1
           1      1      1      1      1      1      1      1      1      1
           1      1      1      1      1      1      1      1      1      1
           1      1      1      1      1      1      1      1      1      1
           1      1      1      1      1      1      1      1      1      1
           1      1      1      1      1      1      1     -1
   7      -1      1      1      1      1      1      1      1      1      1
           1      1      1      1      1      1      1      1      1      1
           1      1      1      1      1      1      1      1      1      1
           1      1      1      1      1      1      1      1      1      1
           1      1      1      1      1      1      1      1      1      1
           1      1      1      1      1      1      1      1      1      1
           1      1      1      1      1      1      1      1      1      1
           1      1      1      1      1      1      1      1      1      1
           1      1      1      1      1      1      1      1      1      1
           1      1      1      1      1      1      1      1      1      1
           1      1      1      1      1      1      1     -1
   8      -1      1      1      1      1      1      1      1      1      1
           1      1      1      1      1      1      1      1      1      1
           1      1      1      1      1      1      1      1      1      1
           1      1      1      1      1      1      1      1      1      1
           1      1      1      1      1      1      1      1      1      1
           1      1      1      1      1      1      1      1      1      1
           1      1      1      1      1      1      1      1      1      1
           1      1      1      1      1      1      1      1      1      1
           1      1      1      1      1      1      1      1      1      1
           1      1      1      1      1      1      1      1      1      1
           1      1      1      1      1      1      1     -1
   9      -1      1      1      1      1      1      1      1      1      1
           1      1      1      1      1      1      1      1      1      1
           1      1      1      1      1      1      1      1      1      1
           1      1      1      1      1      1      1      1      1      1
           1      1      1      1      1      1      1      1      1      1
           1      1      1      1      1      1      1      1      1      1
           1      1      1      1      1      1      1      1      1      1
           1      1      1      1      1      1      1      1      1      1
           1      1      1      1      1      1      1      1      1      1
           1      1      1      1      1      1      1      1      1      1
           1      1      1      1      1      1      1     -1
  10      -1      1      1      1      1      1      1      1      1      1
           1      1      1      1      1      1      1      1      1      1
           1      1      1      1      1      1      1      1      1      1
           1      1      1      1      1      1      1      1      1      1
           1      1      1      1      1      1      1      1      1      1
           1      1      1      1      1      1      1      1      1      1
           1      1      1      1      1      1      1      1      1      1
           1      1      1      1      1      1      1      1      1      1
           1      1      1      1      1      1      1      1      1      1
           1      1      1      1      1      1      1      1      1      1
           1      1      1      1      1      1      1     -1
  11      -1      1      1      1      1      1      1      1      1      1
           1      1      1      1      1      1      1      1      1      1
           1      1      1      1      1      1      1      1      1      1
           1      1      1      1      1      1      1      1      1      1
           1      1      1      1      1      1      1      1      1      1
           1      1      1      1      1      1      1      1      1      1
           1      1      1      1      1      1      1      1      1      1
           1      1      1      1      1      1      1      1      1      1
           1      1      1      1      1      1      1      1      1      1
           1      1      1      1      1      1      1      1      1      1
           1      1      1      1      1      1      1     -1
  12      -1      1      1      1      1      1      1      1      1      1
           1      1      1      1      1      1      1      1      1      1
           1      1      1      1      1      1      1      1      1      1
           1      1      1      1      1      1      1      1      1      1
           1      1      1      1      1      1      1      1      1      1
           1      1      1      1      1      1      1      1      1      1
           1      1      1      1      1      1      1      1      1      1
           1      1      1      1      1      1      1      1      1      1
           1      1      1      1      1      1      1      1      1      1
           1      1      1      1      1      1      1      1      1      1
           1      1      1      1      1      1      1     -1
  13      -1      1      1      1      1      1      1      1      1      1
           1      1      1      1      1      1      1      1      1      1
           1      1      1      1      1      1      1      1      1      1
           1      1      1      1      1      1      1      1      1      1
           1      1      1      1      1      1      1      1      1      1
           1      1      1      1      1      1      1      1      1      1
           1      1      1      1      1      1      1      1      1      1
           1      1      1      1      1      1      1      1      1      1
           1      1      1      1      1      1      1      1      1      1
           1      1      1      1      1      1      1      1      1      1
           1      1      1      1      1      1      1     -1
  14      -1      1      1      1      1      1      1      1      1      1
           1      1      1      1      1      1      1      1      1      1
           1      1      1      1      1      1      1      1      1      1
           1      1      1      1      1      1      1      1      1      1
           1      1      1      1      1      1      1      1      1      1
           1      1      1      1      1      1      1      1      1      1
           1      1      1      1      1      1      1      1      1      1
           1      1      1      1      1      1      1      1      1      1
           1      1      1      1      1      1      1      1      1      1
           1      1      1      1      1      1      1      1      1      1
           1      1      1      1      1      1      1     -1
  15      -1      1      1      1      1      1      1      1      1      1
           1      1      1      1      1      1      1      1      1      1
           1      1      1      1      1      1      1      1      1      1
           1      1      1      1      1      1      1      1      1      1
           1      1      1      1      1      1      1      1      1      1
           1      1      1      1      1      1      1      1      1      1
           1      1      1      1      1      1      1      1      1      1
           1      1      1      1      1      1      1      1      1      1
           1      1      1      1      1      1      1      1      1      1
           1      1      1      1      1      1      1      1      1      1
           1      1      1      1      1      1      1     -1
  16      -1      1      1      1      1      1      1      1      1      1
           1      1      1      1      1      1      1      1      1      1
           1      1      1      1      1      1      1      1      1      1
           1      1      1      1      1      1      1      1      1      1
           1      1      1      1      1      1      1      1      1      1
           1      1      1      1      1      1      1      1      1      1
           1      1      1      1      1      1      1      1      1      1
           1      1      1      1      1      1      1      1      1      1
           1      1      1      1      1      1      1      1      1      1
           1      1      1      1      1      1      1      1      1      1
           1      1      1      1      1      1      1     -1
  17      -1      1      1      1      1      1      1      1      1      1
           1      1      1      1      1      1      1      1      1      1
           1      1      1      1      1      1      1      1      1      1
           1      1      1      1      1      1      1      1      1      1
           1      1      1      1      1      1      1      1      1      1
           1      1      1      1      1      1      1      1      1      1
           1      1      1      1      1      1      1      1      1      1
           1      1      1      1      1      1      1      1      1      1
           1      1      1      1      1      1      1      1      1      1
           1      1      1      1      1      1      1      1      1      1
           1      1      1      1      1      1      1     -1
  18      -1      1      1      1      1      1      1      1      1      1
           1      1      1      1      1      1      1      1      1      1
           1      1      1      1      1      1      1      1      1      1
           1      1      1      1      1      1      1      1      1      1
           1      1      1      1      1      1      1      1      1      1
           1      1      1      1      1      1      1      1      1      1
           1      1      1      1      1      1      1      1      1      1
           1      1      1      1      1      1      1      1      1      1
           1      1      1      1      1      1      1      1      1      1
           1      1      1      1      1      1      1      1      1      1
           1      1      1      1      1      1      1     -1
  19      -1      1      1      1      1      1      1      1      1      1
           1      1      1      1      1      1      1      1      1      1
           1      1      1      1      1      1      1      1      1      1
           1      1      1      1      1      1      1      1      1      1
           1      1      1      1      1      1      1      1      1      1
           1      1      1      1      1      1      1      1      1      1
           1      1      1      1      1      1      1      1      1      1
           1      1      1      1      1      1      1      1      1      1
           1      1      1      1      1      1      1      1      1      1
           1      1      1      1      1      1      1      1      1      1
           1      1      1      1      1      1      1     -1
  20      -1      1      1      1      1      1      1      1      1      1
           1      1      1      1      1      1      1      1      1      1
           1      1      1      1      1      1      1      1      1      1
           1      1      1      1      1      1      1      1      1      1
           1      1      1      1      1      1      1      1      1      1
           1      1      1      1      1      1      1      1      1      1
           1      1      1      1      1      1      1      1      1      1
           1      1      1      1      1      1      1      1      1      1
           1      1      1      1      1      1      1      1      1      1
           1      1      1      1      1      1      1      1      1      1
           1      1      1      1      1      1      1     -1
  21      -1      1      1      1      1      1      1      1      1      1
           1      1      1      1      1      1      1      1      1      1
           1      1      1      1      1      1      1      1      1      1
           1      1      1      1      1      1      1      1      1      1
           1      1      1      1      1      1      1      1      1      1
           1      1      1      1      1      1      1      1      1      1
           1      1      1      1      1      1      1      1      1      1
           1      1      1      1      1      1      1      1      1      1
           1      1      1      1      1      1      1      1      1      1
           1      1      1      1      1      1      1      1      1      1
           1      1      1      1      1      1      1     -1
  22      -1      1      1      1      1      1      1      1      1      1
           1      1      1      1      1      1      1      1      1      1
           1      1      1      1      1      1      1      1      1      1
           1      1      1      1      1      1      1      1      1      1
           1      1      1      1      1      1      1      1      1      1
           1      1      1      1      1      1      1      1      1      1
           1      1      1      1      1      1      1      1      1      1
           1      1      1      1      1      1      1      1      1      1
           1      1      1      1      1      1      1      1      1      1
           1      1      1      1      1      1      1      1      1      1
           1      1      1      1      1      1      1     -1
  23      -1      1      1      1      1      1      1      1      1      1
           1      1      1      1      1      1      1      1      1      1
           1      1      1      1      1      1      1      1      1      1
           1      1      1      1      1      1      1      1      1      1
           1      1      1      1      1      1      1      1      1      1
           1      1      1      1      1      1      1      1      1      1
           1      1      1      1      1      1      1      1      1      1
           1      1      1      1      1      1      1      1      1      1
           1      1      1      1      1      1      1      1      1      1
           1      1      1      1      1      1      1      1      1      1
           1      1      1      1      1      1      1     -1
  24      -1      1      1      1      1      1      1      1      1      1
           1      1      1      1      1      1      1      1      1      1
           1      1      1      1      1      1      1      1      1      1
           1      1      1      1      1      1      1      1      1      1
           1      1      1      1      1      1      1      1      1      1
           1      1      1      1      1      1      1      1      1      1
           1      1      1      1      1      1      1      1      1      1
           1      1      1      1      1      1      1      1      1      1
           1      1      1      1      1      1      1      1      1      1
           1      1      1      1      1      1      1      1      1      1
           1      1      1      1      1      1      1     -1
  25      -1      1      1      1      1      1      1      1      1      1
           1      1      1      1      1      1      1      1      1      1
           1      1      1      1      1      1      1      1      1      1
           1      1      1      1      1      1      1      1      1      1
           1      1      1      1      1      1      1      1      1      1
           1      1      1      1      1      1      1      1      1      1
           1      1      1      1      1      1      1      1      1      1
           1      1      1      1      1      1      1      1      1      1
           1      1      1      1      1      1      1      1      1      1
           1      1      1      1      1      1      1      1      1      1
           1      1      1      1      1      1      1     -1
  26      -1      1      1      1      1      1      1      1      1      1
           1      1      1      1      1      1      1      1      1      1
           1      1      1      1      1      1      1      1      1      1
           1      1      1      1      1      1      1      1      1      1
           1      1      1      1      1      1      1      1      1      1
           1      1      1      1      1      1      1      1      1      1
           1      1      1      1      1      1      1      1      1      1
           1      1      1      1      1      1      1      1      1      1
           1      1      1      1      1      1      1      1      1      1
           1      1      1      1      1      1      1      1      1      1
           1      1      1      1      1      1      1     -1
  27      -1      1      1      1      1      1      1      1      1      1
           1      1      1      1      1      1      1      1      1      1
           1      1      1      1      1      1      1      1      1      1
           1      1      1      1      1      1      1      1      1      1
           1      1      1      1      1      1      1      1      1      1
           1      1      1      1      1      1      1      1      1      1
           1      1      1      1      1      1      1      1      1      1
           1      1      1      1      1      1      1      1      1      1
           1      1      1      1      1      1      1      1      1      1
           1      1      1      1      1      1      1      1      1      1
           1      1      1      1      1      1      1     -1
  28      -1      1      1      1      1      1      1      1      1      1
           1      1      1      1      1      1      1      1      1      1
           1      1      1      1      1      1      1      1      1      1
           1      1      1      1      1      1      1      1      1      1
           1      1      1      1      1      1      1      1      1      1
           1      1      1      1      1      1      1      1      1      1
           1      1      1      1      1      1      1      1      1      1
           1      1      1      1      1      1      1      1      1      1
           1      1      1      1      1      1      1      1      1      1
           1      1      1      1      1      1      1      1      1      1
           1      1      1      1      1      1      1     -1
  29      -1      1      1      1      1      1      1      1      1      1
           1      1      1      1      1      1      1      1      1      1
           1      1      1      1      1      1      1      1      1      1
           1      1      1      1      1      1      1      1      1      1
           1      1      1      1      1      1      1      1      1      1
           1      1      1      1      1      1      1      1      1      1
           1      1      1      1      1      1      1      1      1      1
           1      1      1      1      1      1      1      1      1      1
           1      1      1      1      1      1      1      1      1      1
           1      1      1      1      1      1      1      1      1      1
           1      1      1      1      1      1      1     -1
  30      -1      1      1      1      1      1      1      1      1      1
           1      1      1      1      1      1      1      1      1      1
           1      1      1      1      1      1      1      1      1      1
           1      1      1      1      1      1      1      1      1      1
           1      1      1      1      1      1      1      1      1      1
           1      1      1      1      1      1      1      1      1      1
           1      1      1      1      1      1      1      1      1      1
           1      1      1      1      1      1      1      1      1      1
           1      1      1      1      1      1      1      1      1      1
           1      1      1      1      1      1      1      1      1      1
           1      1      1      1      1      1      1     -1
  31      -1      1      1      1      1      1      1      1      1      1
           1      1      1      1      1      1      1      1      1      1
           1      1      1      1      1      1      1      1      1      1
           1      1      1      1      1      1      1      1      1      1
           1      1      1      1      1      1      1      1      1      1
           1      1      1      1      1      1      1      1      1      1
           1      1      1      1      1      1      1      1      1      1
           1      1      1      1      1      1      1      1      1      1
           1      1      1      1      1      1      1      1      1      1
           1      1      1      1      1      1      1      1      1      1
           1      1      1      1      1      1      1     -1
  32      -1      1      1      1      1      1      1      1      1      1
           1      1      1      1      1      1      1      1      1      1
           1      1      1      1      1      1      1      1      1      1
           1      1      1      1      1      1      1      1      1      1
           1      1      1      1      1      1      1      1      1      1
           1      1      1      1      1      1      1      1      1      1
           1      1      1      1      1      1      1      1      1      1
           1      1      1      1      1      1      1      1      1      1
           1      1      1      1      1      1      1      1      1      1
           1      1      1      1      1      1      1      1      1      1
           1      1      1      1      1      1      1     -1
  33      -1      1      1      1      1      1      1      1      1      1
           1      1      1      1      1      1      1      1      1      1
           1      1      1      1      1      1      1      1      1      1
           1      1      1      1      1      1      1      1      1      1
           1      1      1      1      1      1      1      1      1      1
           1      1      1      1      1      1      1      1      1      1
           1      1      1      1      1      1      1      1      1      1
           1      1      1      1      1      1      1      1      1      1
           1      1      1      1      1      1      1      1      1      1
           1      1      1      1      1      1      1      1      1      1
           1      1      1      1      1      1      1     -1
  34      -1      1      1      1      1      1      1      1      1      1
           1      1      1      1      1      1      1      1      1      1
           1      1      1      1      1      1      1      1      1      1
           1      1      1      1      1      1      1      1      1      1
           1      1      1      1      1      1      1      1      1      1
           1      1      1      1      1      1      1      1      1      1
           1      1      1      1      1      1      1      1      1      1
           1      1      1      1      1      1      1      1      1      1
           1      1      1      1      1      1      1      1      1      1
           1      1      1      1      1      1      1      1      1      1
           1      1      1      1      1      1      1     -1
  35      -1      1      1      1      1      1      1      1      1      1
           1      1      1      1      1      1      1      1      1      1
           1      1      1      1      1      1      1      1      1      1
           1      1      1      1      1      1      1      1      1      1
           1      1      1      1      1      1      1      1      1      1
           1      1      1      1      1      1      1      1      1      1
           1      1      1      1      1      1      1      1      1      1
           1      1      1      1      1      1      1      1      1      1
           1      1      1      1      1      1      1      1      1      1
           1      1      1      1      1      1      1      1      1      1
           1      1      1      1      1      1      1     -1
  36      -1      1      1      1      1      1      1      1      1      1
           1      1      1      1      1      1      1      1      1      1
           1      1      1      1      1      1      1      1      1      1
           1      1      1      1      1      1      1      1      1      1
           1      1      1      1      1      1      1      1      1      1
           1      1      1      1      1      1      1      1      1      1
           1      1      1      1      1      1      1      1      1      1
           1      1      1      1      1      1      1      1      1      1
           1      1      1      1      1      1      1      1      1      1
           1      1      1      1      1      1      1      1      1      1
           1      1      1      1      1      1      1     -1
  37      -1      1      1      1      1      1      1      1      1      1
           1      1      1      1      1      1      1      1      1      1
           1      1      1      1      1      1      1      1      1      1
           1      1      1      1      1      1      1      1      1      1
           1      1      1      1      1      1      1      1      1      1
           1      1      1      1      1      1      1      1      1      1
           1      1      1      1      1      1      1      1      1      1
           1      1      1      1      1      1      1      1      1      1
           1      1      1      1      1      1      1      1      1      1
           1      1      1      1      1      1      1      1      1      1
           1      1      1      1      1      1      1     -1
  38      -1      1      1      1      1      1      1      1      1      1
           1      1      1      1      1      1      1      1      1      1
           1      1      1      1      1      1      1      1      1      1
           1      1      1      1      1      1      1      1      1      1
           1      1      1      1      1      1      1      1      1      1
           1      1      1      1      1      1      1      1      1      1
           1      1      1      1      1      1      1      1      1      1
           1      1      1      1      1      1      1      1      1      1
           1      1      1      1      1      1      1      1      1      1
           1      1      1      1      1      1      1      1      1      1
           1      1      1      1      1      1      1     -1
  39      -1      1      1      1      1      1      1      1      1      1
           1      1      1      1      1      1      1      1      1      1
           1      1      1      1      1      1      1      1      1      1
           1      1      1      1      1      1      1      1      1      1
           1      1      1      1      1      1      1      1      1      1
           1      1      1      1      1      1      1      1      1      1
           1      1      1      1      1      1      1      1      1      1
           1      1      1      1      1      1      1      1      1      1
           1      1      1      1      1      1      1      1      1      1
           1      1      1      1      1      1      1      1      1      1
           1      1      1      1      1      1      1     -1
  40      -1      1      1      1      1      1      1      1      1      1
           1      1      1      1      1      1      1      1      1      1
           1      1      1      1      1      1      1      1      1      1
           1      1      1      1      1      1      1      1      1      1
           1      1      1      1      1      1      1      1      1      1
           1      1      1      1      1      1      1      1      1      1
           1      1      1      1      1      1      1      1      1      1
           1      1      1      1      1      1      1      1      1      1
           1      1      1      1      1      1      1      1      1      1
           1      1      1      1      1      1      1      1      1      1
           1      1      1      1      1      1      1     -1
  41      -1      1      1      1      1      1      1      1      1      1
           1      1      1      1      1      1      1      1      1      1
           1      1      1      1      1      1      1      1      1      1
           1      1      1      1      1      1      1      1      1      1
           1      1      1      1      1      1      1      1      1      1
           1      1      1      1      1      1      1      1      1      1
           1      1      1      1      1      1      1      1      1      1
           1      1      1      1      1      1      1      1      1      1
           1      1      1      1      1      1      1      1      1      1
           1      1      1      1      1      1      1      1      1      1
           1      1      1      1      1      1      1     -1
  42      -1      1      1      1      1      1      1      1      1      1
           1      1      1      1      1      1      1      1      1      1
           1      1      1      1      1      1      1      1      1      1
           1      1      1      1      1      1      1      1      1      1
           1      1      1      1      1      1      1      1      1      1
           1      1      1      1      1      1      1      1      1      1
           1      1      1      1      1      1      1      1      1      1
           1      1      1      1      1      1      1      1      1      1
           1      1      1      1      1      1      1      1      1      1
           1      1      1      1      1      1      1      1      1      1
           1      1      1      1      1      1      1     -1
  43      -1      1      1      1      1      1      1      1      1      1
           1      1      1      1      1      1      1      1      1      1
           1      1      1      1      1      1      1      1      1      1
           1      1      1      1      1      1      1      1      1      1
           1      1      1      1      1      1      1      1      1      1
           1      1      1      1      1      1      1      1      1      1
           1      1      1      1      1      1      1      1      1      1
           1      1      1      1      1      1      1      1      1      1
           1      1      1      1      1      1      1      1      1      1
           1      1      1      1      1      1      1      1      1      1
           1      1      1      1      1      1      1     -1
  44      -1      1      1      1      1      1      1      1      1      1
           1      1      1      1      1      1      1      1      1      1
           1      1      1      1      1      1      1      1      1      1
           1      1      1      1      1      1      1      1      1      1
           1      1      1      1      1      1      1      1      1      1
           1      1      1      1      1      1      1      1      1      1
           1      1      1      1      1      1      1      1      1      1
           1      1      1      1      1      1      1      1      1      1
           1      1      1      1      1      1      1      1      1      1
           1      1      1      1      1      1      1      1      1      1
           1      1      1      1      1      1      1     -1
  45      -1      1      1      1      1      1      1      1      1      1
           1      1      1      1      1      1      1      1      1      1
           1      1      1      1      1      1      1      1      1      1
           1      1      1      1      1      1      1      1      1      1
           1      1      1      1      1      1      1      1      1      1
           1      1      1      1      1      1      1      1      1      1
           1      1      1      1      1      1      1      1      1      1
           1      1      1      1      1      1      1      1      1      1
           1      1      1      1      1      1      1      1      1      1
           1      1      1      1      1      1      1      1      1      1
           1      1      1      1      1      1      1     -1
  46      -1      1      1      1      1      1      1      1      1      1
           1      1      1      1      1      1      1      1      1      1
           1      1      1      1      1      1      1      1      1      1
           1      1      1      1      1      1      1      1      1      1
           1      1      1      1      1      1      1      1      1      1
           1      1      1      1      1      1      1      1      1      1
           1      1      1      1      1      1      1      1      1      1
           1      1      1      1      1      1      1      1      1      1
           1      1      1      1      1      1      1      1      1      1
           1      1      1      1      1      1      1      1      1      1
           1      1      1      1      1      1      1     -1
  47      -1      1      1      1      1      1      1      1      1      1
           1      1      1      1      1      1      1      1      1      1
           1      1      1      1      1      1      1      1      1      1
           1      1      1      1      1      1      1      1      1      1
           1      1      1      1      1      1      1      1      1      1
           1      1      1      1      1      1      1      1      1      1
           1      1      1      1      1      1      1      1      1      1
           1      1      1      1      1      1      1      1      1      1
           1      1      1      1      1      1      1      1      1      1
           1      1      1      1      1      1      1      1      1      1
           1      1      1      1      1      1      1     -1
  48      -1      1      1      1      1      1      1      1      1      1
           1      1      1      1      1      1      1      1      1      1
           1      1      1      1      1      1      1      1      1      1
           1      1      1      1      1      1      1      1      1      1
           1      1      1      1      1      1      1      1      1      1
           1      1      1      1      1      1      1      1      1      1
           1      1      1      1      1      1      1      1      1      1
           1      1      1      1      1      1      1      1      1      1
           1      1      1      1      1      1      1      1      1      1
           1      1      1      1      1      1      1      1      1      1
           1      1      1      1      1      1      1     -1
  49      -1      1      1      1      1      1      1      1      1      1
           1      1      1      1      1      1      1      1      1      1
           1      1      1      1      1      1      1      1      1      1
           1      1      1      1      1      1      1      1      1      1
           1      1      1      1      1      1      1      1      1      1
           1      1      1      1      1      1      1      1      1      1
           1      1      1      1      1      1      1      1      1      1
           1      1      1      1      1      1      1      1      1      1
           1      1      1      1      1      1      1      1      1      1
           1      1      1      1      1      1      1      1      1      1
           1      1      1      1      1      1      1     -1
  50      -1      1      1      1      1      1      1      1      1      1
           1      1      1      1      1      1      1      1      1      1
           1      1      1      1      1      1      1      1      1      1
           1      1      1      1      1      1      1      1      1      1
           1      1      1      1      1      1      1      1      1      1
           1      1      1      1      1      1      1      1      1      1
           1      1      1      1      1      1      1      1      1      1
           1      1      1      1      1      1      1      1      1      1
           1      1      1      1      1      1      1      1      1      1
           1      1      1      1      1      1      1      1      1      1
           1      1      1      1      1      1      1     -1

 AQUIFER HEAD WILL BE SET TO  -999.00     AT ALL NO-FLOW NODES (IBOUND=0).

 OPENING FILE ON UNIT   99:
 swr007.shd                                                                                                                                                                                              



                       INITIAL HEAD FOR LAYER   1
 READING ON UNIT   99 WITH FORMAT: (108F5.3)           

         1     2     3     4     5     6     7     8     9    10    11    12    13    14    15    16    17    18    19    20
        21    22    23    24    25    26    27    28    29    30    31    32    33    34    35    36    37    38    39    40
        41    42    43    44    45    46    47    48    49    50    51    52    53    54    55    56    57    58    59    60
        61    62    63    64    65    66    67    68    69    70    71    72    73    74    75    76    77    78    79    80
        81    82    83    84    85    86    87    88    89    90    91    92    93    94    95    96    97    98    99   100
       101   102   103   104   105   106   107   108
 ...........................................................................................................................
   1  12.00  9.50  9.50  9.50  9.50  9.50  9.50  9.50  9.50  9.50  9.50  9.50  9.50  9.50  9.50  9.50  9.50  9.50  9.50  9.50
       9.50  9.50  9.50  9.50  9.50  9.50  9.50  9.50  9.50  9.50  9.50  9.50  9.50  9.50  9.50  9.50  9.50  9.50  9.50  9.50
       9.50  9.50  9.50  9.50  9.50  9.50  9.50  9.50  9.50  9.50  9.50  9.50  9.50  9.50  9.50  9.50  9.50  9.50  9.50  9.50
       9.50  9.50  9.50  9.50  9.50  9.50  9.50  9.50  9.50  9.50  9.50  9.50  9.50  9.50  9.50  9.50  9.50  9.50  9.50  9.50
       9.50  9.50  9.50  9.50  9.50  9.50  9.50  9.50  9.50  9.50  9.50  9.50  9.50  9.50  9.50  9.50  9.50  9.50  9.50  9.50
       9.50  9.50  9.50  9.50  9.50  9.50  9.50  8.00
   2  12.00  9.50  9.50  9.50  9.50  9.50  9.50  9.50  9.50  9.50  9.50  9.50  9.50  9.50  9.50  9.50  9.50  9.50  9.50  9.50
       9.50  9.50  9.50  9.50  9.50  9.50  9.50  9.50  9.50  9.50  9.50  9.50  9.50  9.50  9.50  9.50  9.50  9.50  9.50  9.50
       9.50  9.50  9.50  9.50  9.50  9.50  9.50  9.50  9.50  9.50  9.50  9.50  9.50  9.50  9.50  9.50  9.50  9.50  9.50  9.50
       9.50  9.50  9.50  9.50  9.50  9.50  9.50  9.50  9.50  9.50  9.50  9.50  9.50  9.50  9.50  9.50  9.50  9.50  9.50  9.50
       9.50  9.50  9.50  9.50  9.50  9.50  9.50  9.50  9.50  9.50  9.50  9.50  9.50  9.50  9.50  9.50  9.50  9.50  9.50  9.50
       9.50  9.50  9.50  9.50  9.50  9.50  9.50  8.00
   3  12.00  9.50  9.50  9.50  9.50  9.50  9.50  9.50  9.50  9.50  9.50  9.50  9.50  9.50  9.50  9.50  9.50  9.50  9.50  9.50
       9.50  9.50  9.50  9.50  9.50  9.50  9.50  9.50  9.50  9.50  9.50  9.50  9.50  9.50  9.50  9.50  9.50  9.50  9.50  9.50
       9.50  9.50  9.50  9.50  9.50  9.50  9.50  9.50  9.50  9.50  9.50  9.50  9.50  9.50  9.50  9.50  9.50  9.50  9.50  9.50
       9.50  9.50  9.50  9.50  9.50  9.50  9.50  9.50  9.50  9.50  9.50  9.50  9.50  9.50  9.50  9.50  9.50  9.50  9.50  9.50
       9.50  9.50  9.50  9.50  9.50  9.50  9.50  9.50  9.50  9.50  9.50  9.50  9.50  9.50  9.50  9.50  9.50  9.50  9.50  9.50
       9.50  9.50  9.50  9.50  9.50  9.50  9.50  8.00
   4  12.00  9.50  9.50  9.50  9.50  9.50  9.50  9.50  9.50  9.50  9.50  9.50  9.50  9.50  9.50  9.50  9.50  9.50  9.50  9.50
       9.50  9.50  9.50  9.50  9.50  9.50  9.50  9.50  9.50  9.50  9.50  9.50  9.50  9.50  9.50  9.50  9.50  9.50  9.50  9.50
       9.50  9.50  9.50  9.50  9.50  9.50  9.50  9.50  9.50  9.50  9.50  9.50  9.50  9.50  9.50  9.50  9.50  9.50  9.50  9.50
       9.50  9.50  9.50  9.50  9.50  9.50  9.50  9.50  9.50  9.50  9.50  9.50  9.50  9.50  9.50  9.50  9.50  9.50  9.50  9.50
       9.50  9.50  9.50  9.50  9.50  9.50  9.50  9.50  9.50  9.50  9.50  9.50  9.50  9.50  9.50  9.50  9.50  9.50  9.50  9.50
       9.50  9.50  9.50  9.50  9.50  9.50  9.50  8.00
   5  12.00  9.50  9.50  9.50  9.50  9.50  9.50  9.50  9.50  9.50  9.50  9.50  9.50  9.50  9.50  9.50  9.50  9.50  9.50  9.50
       9.50  9.50  9.50  9.50  9.50  9.50  9.50  9.50  9.50  9.50  9.50  9.50  9.50  9.50  9.50  9.50  9.50  9.50  9.50  9.50
       9.50  9.50  9.50  9.50  9.50  9.50  9.50  9.50  9.50  9.50  9.50  9.50  9.50  9.50  9.50  9.50  9.50  9.50  9.50  9.50
       9.50  9.50  9.50  9.50  9.50  9.50  9.50  9.50  9.50  9.50  9.50  9.50  9.50  9.50  9.50  9.50  9.50  9.50  9.50  9.50
       9.50  9.50  9.50  9.50  9.50  9.50  9.50  9.50  9.50  9.50  9.50  9.50  9.50  9.50  9.50  9.50  9.50  9.50  9.50  9.50
       9.50  9.50  9.50  9.50  9.50  9.50  9.50  8.00
   6  12.00  9.50  9.50  9.50  9.50  9.50  9.50  9.50  9.50  9.50  9.50  9.50  9.50  9.50  9.50  9.50  9.50  9.50  9.50  9.50
       9.50  9.50  9.50  9.50  9.50  9.50  9.50  9.50  9.50  9.50  9.50  9.50  9.50  9.50  9.50  9.50  9.50  9.50  9.50  9.50
       9.50  9.50  9.50  9.50  9.50  9.50  9.50  9.50  9.50  9.50  9.50  9.50  9.50  9.50  9.50  9.50  9.50  9.50  9.50  9.50
       9.50  9.50  9.50  9.50  9.50  9.50  9.50  9.50  9.50  9.50  9.50  9.50  9.50  9.50  9.50  9.50  9.50  9.50  9.50  9.50
       9.50  9.50  9.50  9.50  9.50  9.50  9.50  9.50  9.50  9.50  9.50  9.50  9.50  9.50  9.50  9.50  9.50  9.50  9.50  9.50
       9.50  9.50  9.50  9.50  9.50  9.50  9.50  8.00
   7  12.00  9.50  9.50  9.50  9.50  9.50  9.50  9.50  9.50  9.50  9.50  9.50  9.50  9.50  9.50  9.50  9.50  9.50  9.50  9.50
       9.50  9.50  9.50  9.50  9.50  9.50  9.50  9.50  9.50  9.50  9.50  9.50  9.50  9.50  9.50  9.50  9.50  9.50  9.50  9.50
       9.50  9.50  9.50  9.50  9.50  9.50  9.50  9.50  9.50  9.50  9.50  9.50  9.50  9.50  9.50  9.50  9.50  9.50  9.50  9.50
       9.50  9.50  9.50  9.50  9.50  9.50  9.50  9.50  9.50  9.50  9.50  9.50  9.50  9.50  9.50  9.50  9.50  9.50  9.50  9.50
       9.50  9.50  9.50  9.50  9.50  9.50  9.50  9.50  9.50  9.50  9.50  9.50  9.50  9.50  9.50  9.50  9.50  9.50  9.50  9.50
       9.50  9.50  9.50  9.50  9.50  9.50  9.50  8.00
   8  12.00  9.50  9.50  9.50  9.50  9.50  9.50  9.50  9.50  9.50  9.50  9.50  9.50  9.50  9.50  9.50  9.50  9.50  9.50  9.50
       9.50  9.50  9.50  9.50  9.50  9.50  9.50  9.50  9.50  9.50  9.50  9.50  9.50  9.50  9.50  9.50  9.50  9.50  9.50  9.50
       9.50  9.50  9.50  9.50  9.50  9.50  9.50  9.50  9.50  9.50  9.50  9.50  9.50  9.50  9.50  9.50  9.50  9.50  9.50  9.50
       9.50  9.50  9.50  9.50  9.50  9.50  9.50  9.50  9.50  9.50  9.50  9.50  9.50  9.50  9.50  9.50  9.50  9.50  9.50  9.50
       9.50  9.50  9.50  9.50  9.50  9.50  9.50  9.50  9.50  9.50  9.50  9.50  9.50  9.50  9.50  9.50  9.50  9.50  9.50  9.50
       9.50  9.50  9.50  9.50  9.50  9.50  9.50  8.00
   9  12.00  9.50  9.50  9.50  9.50  9.50  9.50  9.50  9.50  9.50  9.50  9.50  9.50  9.50  9.50  9.50  9.50  9.50  9.50  9.50
       9.50  9.50  9.50  9.50  9.50  9.50  9.50  9.50  9.50  9.50  9.50  9.50  9.50  9.50  9.50  9.50  9.50  9.50  9.50  9.50
       9.50  9.50  9.50  9.50  9.50  9.50  9.50  9.50  9.50  9.50  9.50  9.50  9.50  9.50  9.50  9.50  9.50  9.50  9.50  9.50
       9.50  9.50  9.50  9.50  9.50  9.50  9.50  9.50  9.50  9.50  9.50  9.50  9.50  9.50  9.50  9.50  9.50  9.50  9.50  9.50
       9.50  9.50  9.50  9.50  9.50  9.50  9.50  9.50  9.50  9.50  9.50  9.50  9.50  9.50  9.50  9.50  9.50  9.50  9.50  9.50
       9.50  9.50  9.50  9.50  9.50  9.50  9.50  8.00
  10  12.00  9.50  9.50  9.50  9.50  9.50  9.50  9.50  9.50  9.50  9.50  9.50  9.50  9.50  9.50  9.50  9.50  9.50  9.50  9.50
       9.50  9.50  9.50  9.50  9.50  9.50  9.50  9.50  9.50  9.50  9.50  9.50  9.50  9.50  9.50  9.50  9.50  9.50  9.50  9.50
       9.50  9.50  9.50  9.50  9.50  9.50  9.50  9.50  9.50  9.50  9.50  9.50  9.50  9.50  9.50  9.50  9.50  9.50  9.50  9.50
       9.50  9.50  9.50  9.50  9.50  9.50  9.50  9.50  9.50  9.50  9.50  9.50  9.50  9.50  9.50  9.50  9.50  9.50  9.50  9.50
       9.50  9.50  9.50  9.50  9.50  9.50  9.50  9.50  9.50  9.50  9.50  9.50  9.50  9.50  9.50  9.50  9.50  9.50  9.50  9.50
       9.50  9.50  9.50  9.50  9.50  9.50  9.50  8.00
  11  12.00  9.50  9.50  9.50  9.50  9.50  9.50  9.50  9.50  9.50  9.50  9.50  9.50  9.50  9.50  9.50  9.50  9.50  9.50  9.50
       9.50  9.50  9.50  9.50  9.50  9.50  9.50  9.50  9.50  9.50  9.50  9.50  9.50  9.50  9.50  9.50  9.50  9.50  9.50  9.50
       9.50  9.50  9.50  9.50  9.50  9.50  9.50  9.50  9.50  9.50  9.50  9.50  9.50  9.50  9.50  9.50  9.50  9.50  9.50  9.50
       9.50  9.50  9.50  9.50  9.50  9.50  9.50  9.50  9.50  9.50  9.50  9.50  9.50  9.50  9.50  9.50  9.50  9.50  9.50  9.50
       9.50  9.50  9.50  9.50  9.50  9.50  9.50  9.50  9.50  9.50  9.50  9.50  9.50  9.50  9.50  9.50  9.50  9.50  9.50  9.50
       9.50  9.50  9.50  9.50  9.50  9.50  9.50  8.00
  12  12.00  9.50  9.50  9.50  9.50  9.50  9.50  9.50  9.50  9.50  9.50  9.50  9.50  9.50  9.50  9.50  9.50  9.50  9.50  9.50
       9.50  9.50  9.50  9.50  9.50  9.50  9.50  9.50  9.50  9.50  9.50  9.50  9.50  9.50  9.50  9.50  9.50  9.50  9.50  9.50
       9.50  9.50  9.50  9.50  9.50  9.50  9.50  9.50  9.50  9.50  9.50  9.50  9.50  9.50  9.50  9.50  9.50  9.50  9.50  9.50
       9.50  9.50  9.50  9.50  9.50  9.50  9.50  9.50  9.50  9.50  9.50  9.50  9.50  9.50  9.50  9.50  9.50  9.50  9.50  9.50
       9.50  9.50  9.50  9.50  9.50  9.50  9.50  9.50  9.50  9.50  9.50  9.50  9.50  9.50  9.50  9.50  9.50  9.50  9.50  9.50
       9.50  9.50  9.50  9.50  9.50  9.50  9.50  8.00
  13  12.00  9.50  9.50  9.50  9.50  9.50  9.50  9.50  9.50  9.50  9.50  9.50  9.50  9.50  9.50  9.50  9.50  9.50  9.50  9.50
       9.50  9.50  9.50  9.50  9.50  9.50  9.50  9.50  9.50  9.50  9.50  9.50  9.50  9.50  9.50  9.50  9.50  9.50  9.50  9.50
       9.50  9.50  9.50  9.50  9.50  9.50  9.50  9.50  9.50  9.50  9.50  9.50  9.50  9.50  9.50  9.50  9.50  9.50  9.50  9.50
       9.50  9.50  9.50  9.50  9.50  9.50  9.50  9.50  9.50  9.50  9.50  9.50  9.50  9.50  9.50  9.50  9.50  9.50  9.50  9.50
       9.50  9.50  9.50  9.50  9.50  9.50  9.50  9.50  9.50  9.50  9.50  9.50  9.50  9.50  9.50  9.50  9.50  9.50  9.50  9.50
       9.50  9.50  9.50  9.50  9.50  9.50  9.50  8.00
  14  12.00  9.50  9.50  9.50  9.50  9.50  9.50  9.50  9.50  9.50  9.50  9.50  9.50  9.50  9.50  9.50  9.50  9.50  9.50  9.50
       9.50  9.50  9.50  9.50  9.50  9.50  9.50  9.50  9.50  9.50  9.50  9.50  9.50  9.50  9.50  9.50  9.50  9.50  9.50  9.50
       9.50  9.50  9.50  9.50  9.50  9.50  9.50  9.50  9.50  9.50  9.50  9.50  9.50  9.50  9.50  9.50  9.50  9.50  9.50  9.50
       9.50  9.50  9.50  9.50  9.50  9.50  9.50  9.50  9.50  9.50  9.50  9.50  9.50  9.50  9.50  9.50  9.50  9.50  9.50  9.50
       9.50  9.50  9.50  9.50  9.50  9.50  9.50  9.50  9.50  9.50  9.50  9.50  9.50  9.50  9.50  9.50  9.50  9.50  9.50  9.50
       9.50  9.50  9.50  9.50  9.50  9.50  9.50  8.00
  15  12.00  9.50  9.50  9.50  9.50  9.50  9.50  9.50  9.50  9.50  9.50  9.50  9.50  9.50  9.50  9.50  9.50  9.50  9.50  9.50
       9.50  9.50  9.50  9.50  9.50  9.50  9.50  9.50  9.50  9.50  9.50  9.50  9.50  9.50  9.50  9.50  9.50  9.50  9.50  9.50
       9.50  9.50  9.50  9.50  9.50  9.50  9.50  9.50  9.50  9.50  9.50  9.50  9.50  9.50  9.50  9.50  9.50  9.50  9.50  9.50
       9.50  9.50  9.50  9.50  9.50  9.50  9.50  9.50  9.50  9.50  9.50  9.50  9.50  9.50  9.50  9.50  9.50  9.50  9.50  9.50
       9.50  9.50  9.50  9.50  9.50  9.50  9.50  9.50  9.50  9.50  9.50  9.50  9.50  9.50  9.50  9.50  9.50  9.50  9.50  9.50
       9.50  9.50  9.50  9.50  9.50  9.50  9.50  8.00
  16  12.00  9.50  9.50  9.50  9.50  9.50  9.50  9.50  9.50  9.50  9.50  9.50  9.50  9.50  9.50  9.50  9.50  9.50  9.50  9.50
       9.50  9.50  9.50  9.50  9.50  9.50  9.50  9.50  9.50  9.50  9.50  9.50  9.50  9.50  9.50  9.50  9.50  9.50  9.50  9.50
       9.50  9.50  9.50  9.50  9.50  9.50  9.50  9.50  9.50  9.50  9.50  9.50  9.50  9.50  9.50  9.50  9.50  9.50  9.50  9.50
       9.50  9.50  9.50  9.50  9.50  9.50  9.50  9.50  9.50  9.50  9.50  9.50  9.50  9.50  9.50  9.50  9.50  9.50  9.50  9.50
       9.50  9.50  9.50  9.50  9.50  9.50  9.50  9.50  9.50  9.50  9.50  9.50  9.50  9.50  9.50  9.50  9.50  9.50  9.50  9.50
       9.50  9.50  9.50  9.50  9.50  9.50  9.50  8.00
  17  12.00  9.50  9.50  9.50  9.50  9.50  9.50  9.50  9.50  9.50  9.50  9.50  9.50  9.50  9.50  9.50  9.50  9.50  9.50  9.50
       9.50  9.50  9.50  9.50  9.50  9.50  9.50  9.50  9.50  9.50  9.50  9.50  9.50  9.50  9.50  9.50  9.50  9.50  9.50  9.50
       9.50  9.50  9.50  9.50  9.50  9.50  9.50  9.50  9.50  9.50  9.50  9.50  9.50  9.50  9.50  9.50  9.50  9.50  9.50  9.50
       9.50  9.50  9.50  9.50  9.50  9.50  9.50  9.50  9.50  9.50  9.50  9.50  9.50  9.50  9.50  9.50  9.50  9.50  9.50  9.50
       9.50  9.50  9.50  9.50  9.50  9.50  9.50  9.50  9.50  9.50  9.50  9.50  9.50  9.50  9.50  9.50  9.50  9.50  9.50  9.50
       9.50  9.50  9.50  9.50  9.50  9.50  9.50  8.00
  18  12.00  9.50  9.50  9.50  9.50  9.50  9.50  9.50  9.50  9.50  9.50  9.50  9.50  9.50  9.50  9.50  9.50  9.50  9.50  9.50
       9.50  9.50  9.50  9.50  9.50  9.50  9.50  9.50  9.50  9.50  9.50  9.50  9.50  9.50  9.50  9.50  9.50  9.50  9.50  9.50
       9.50  9.50  9.50  9.50  9.50  9.50  9.50  9.50  9.50  9.50  9.50  9.50  9.50  9.50  9.50  9.50  9.50  9.50  9.50  9.50
       9.50  9.50  9.50  9.50  9.50  9.50  9.50  9.50  9.50  9.50  9.50  9.50  9.50  9.50  9.50  9.50  9.50  9.50  9.50  9.50
       9.50  9.50  9.50  9.50  9.50  9.50  9.50  9.50  9.50  9.50  9.50  9.50  9.50  9.50  9.50  9.50  9.50  9.50  9.50  9.50
       9.50  9.50  9.50  9.50  9.50  9.50  9.50  8.00
  19  12.00  9.50  9.50  9.50  9.50  9.50  9.50  9.50  9.50  9.50  9.50  9.50  9.50  9.50  9.50  9.50  9.50  9.50  9.50  9.50
       9.50  9.50  9.50  9.50  9.50  9.50  9.50  9.50  9.50  9.50  9.50  9.50  9.50  9.50  9.50  9.50  9.50  9.50  9.50  9.50
       9.50  9.50  9.50  9.50  9.50  9.50  9.50  9.50  9.50  9.50  9.50  9.50  9.50  9.50  9.50  9.50  9.50  9.50  9.50  9.50
       9.50  9.50  9.50  9.50  9.50  9.50  9.50  9.50  9.50  9.50  9.50  9.50  9.50  9.50  9.50  9.50  9.50  9.50  9.50  9.50
       9.50  9.50  9.50  9.50  9.50  9.50  9.50  9.50  9.50  9.50  9.50  9.50  9.50  9.50  9.50  9.50  9.50  9.50  9.50  9.50
       9.50  9.50  9.50  9.50  9.50  9.50  9.50  8.00
  20  12.00  9.50  9.50  9.50  9.50  9.50  9.50  9.50  9.50  9.50  9.50  9.50  9.50  9.50  9.50  9.50  9.50  9.50  9.50  9.50
       9.50  9.50  9.50  9.50  9.50  9.50  9.50  9.50  9.50  9.50  9.50  9.50  9.50  9.50  9.50  9.50  9.50  9.50  9.50  9.50
       9.50  9.50  9.50  9.50  9.50  9.50  9.50  9.50  9.50  9.50  9.50  9.50  9.50  9.50  9.50  9.50  9.50  9.50  9.50  9.50
       9.50  9.50  9.50  9.50  9.50  9.50  9.50  9.50  9.50  9.50  9.50  9.50  9.50  9.50  9.50  9.50  9.50  9.50  9.50  9.50
       9.50  9.50  9.50  9.50  9.50  9.50  9.50  9.50  9.50  9.50  9.50  9.50  9.50  9.50  9.50  9.50  9.50  9.50  9.50  9.50
       9.50  9.50  9.50  9.50  9.50  9.50  9.50  8.00
  21  12.00  9.50  9.50  9.50  9.50  9.50  9.50  9.50  9.50  9.50  9.50  9.50  9.50  9.50  9.50  9.50  9.50  9.50  9.50  9.50
       9.50  9.50  9.50  9.50  9.50  9.50  9.50  9.50  9.50  9.50  9.50  9.50  9.50  9.50  9.50  9.50  9.50  9.50  9.50  9.50
       9.50  9.50  9.50  9.50  9.50  9.50  9.50  9.50  9.50  9.50  9.50  9.50  9.50  9.50  9.50  9.50  9.50  9.50  9.50  9.50
       9.50  9.50  9.50  9.50  9.50  9.50  9.50  9.50  9.50  9.50  9.50  9.50  9.50  9.50  9.50  9.50  9.50  9.50  9.50  9.50
       9.50  9.50  9.50  9.50  9.50  9.50  9.50  9.50  9.50  9.50  9.50  9.50  9.50  9.50  9.50  9.50  9.50  9.50  9.50  9.50
       9.50  9.50  9.50  9.50  9.50  9.50  9.50  8.00
  22  12.00  9.50  9.50  9.50  9.50  9.50  9.50  9.50  9.50  9.50  9.50  9.50  9.50  9.50  9.50  9.50  9.50  9.50  9.50  9.50
       9.50  9.50  9.50  9.50  9.50  9.50  9.50  9.50  9.50  9.50  9.50  9.50  9.50  9.50  9.50  9.50  9.50  9.50  9.50  9.50
       9.50  9.50  9.50  9.50  9.50  9.50  9.50  9.50  9.50  9.50  9.50  9.50  9.50  9.50  9.50  9.50  9.50  9.50  9.50  9.50
       9.50  9.50  9.50  9.50  9.50  9.50  9.50  9.50  9.50  9.50  9.50  9.50  9.50  9.50  9.50  9.50  9.50  9.50  9.50  9.50
       9.50  9.50  9.50  9.50  9.50  9.50  9.50  9.50  9.50  9.50  9.50  9.50  9.50  9.50  9.50  9.50  9.50  9.50  9.50  9.50
       9.50  9.50  9.50  9.50  9.50  9.50  9.50  8.00
  23  12.00  9.50  9.50  9.50  9.50  9.50  9.50  9.50  9.50  9.50  9.50  9.50  9.50  9.50  9.50  9.50  9.50  9.50  9.50  9.50
       9.50  9.50  9.50  9.50  9.50  9.50  9.50  9.50  9.50  9.50  9.50  9.50  9.50  9.50  9.50  9.50  9.50  9.50  9.50  9.50
       9.50  9.50  9.50  9.50  9.50  9.50  9.50  9.50  9.50  9.50  9.50  9.50  9.50  9.50  9.50  9.50  9.50  9.50  9.50  9.50
       9.50  9.50  9.50  9.50  9.50  9.50  9.50  9.50  9.50  9.50  9.50  9.50  9.50  9.50  9.50  9.50  9.50  9.50  9.50  9.50
       9.50  9.50  9.50  9.50  9.50  9.50  9.50  9.50  9.50  9.50  9.50  9.50  9.50  9.50  9.50  9.50  9.50  9.50  9.50  9.50
       9.50  9.50  9.50  9.50  9.50  9.50  9.50  8.00
  24  12.00  9.50  9.50  9.50  9.50  9.50  9.50  9.50  9.50  9.50  9.50  9.50  9.50  9.50  9.50  9.50  9.50  9.50  9.50  9.50
       9.50  9.50  9.50  9.50  9.50  9.50  9.50  9.50  9.50  9.50  9.50  9.50  9.50  9.50  9.50  9.50  9.50  9.50  9.50  9.50
       9.50  9.50  9.50  9.50  9.50  9.50  9.50  9.50  9.50  9.50  9.50  9.50  9.50  9.50  9.50  9.50  9.50  9.50  9.50  9.50
       9.50  9.50  9.50  9.50  9.50  9.50  9.50  9.50  9.50  9.50  9.50  9.50  9.50  9.50  9.50  9.50  9.50  9.50  9.50  9.50
       9.50  9.50  9.50  9.50  9.50  9.50  9.50  9.50  9.50  9.50  9.50  9.50  9.50  9.50  9.50  9.50  9.50  9.50  9.50  9.50
       9.50  9.50  9.50  9.50  9.50  9.50  9.50  8.00
  25  12.00  9.50  9.50  9.50  9.50  9.50  9.50  9.50  9.50  9.50  9.50  9.50  9.50  9.50  9.50  9.50  9.50  9.50  9.50  9.50
       9.50  9.50  9.50  9.50  9.50  9.50  9.50  9.50  9.50  9.50  9.50  9.50  9.50  9.50  9.50  9.50  9.50  9.50  9.50  9.50
       9.50  9.50  9.50  9.50  9.50  9.50  9.50  9.50  9.50  9.50  9.50  9.50  9.50  9.50  9.50  9.50  9.50  9.50  9.50  9.50
       9.50  9.50  9.50  9.50  9.50  9.50  9.50  9.50  9.50  9.50  9.50  9.50  9.50  9.50  9.50  9.50  9.50  9.50  9.50  9.50
       9.50  9.50  9.50  9.50  9.50  9.50  9.50  9.50  9.50  9.50  9.50  9.50  9.50  9.50  9.50  9.50  9.50  9.50  9.50  9.50
       9.50  9.50  9.50  9.50  9.50  9.50  9.50  8.00
  26  12.00  9.50  9.50  9.50  9.50  9.50  9.50  9.50  9.50  9.50  9.50  9.50  9.50  9.50  9.50  9.50  9.50  9.50  9.50  9.50
       9.50  9.50  9.50  9.50  9.50  9.50  9.50  9.50  9.50  9.50  9.50  9.50  9.50  9.50  9.50  9.50  9.50  9.50  9.50  9.50
       9.50  9.50  9.50  9.50  9.50  9.50  9.50  9.50  9.50  9.50  9.50  9.50  9.50  9.50  9.50  9.50  9.50  9.50  9.50  9.50
       9.50  9.50  9.50  9.50  9.50  9.50  9.50  9.50  9.50  9.50  9.50  9.50  9.50  9.50  9.50  9.50  9.50  9.50  9.50  9.50
       9.50  9.50  9.50  9.50  9.50  9.50  9.50  9.50  9.50  9.50  9.50  9.50  9.50  9.50  9.50  9.50  9.50  9.50  9.50  9.50
       9.50  9.50  9.50  9.50  9.50  9.50  9.50  8.00
  27  12.00  9.50  9.50  9.50  9.50  9.50  9.50  9.50  9.50  9.50  9.50  9.50  9.50  9.50  9.50  9.50  9.50  9.50  9.50  9.50
       9.50  9.50  9.50  9.50  9.50  9.50  9.50  9.50  9.50  9.50  9.50  9.50  9.50  9.50  9.50  9.50  9.50  9.50  9.50  9.50
       9.50  9.50  9.50  9.50  9.50  9.50  9.50  9.50  9.50  9.50  9.50  9.50  9.50  9.50  9.50  9.50  9.50  9.50  9.50  9.50
       9.50  9.50  9.50  9.50  9.50  9.50  9.50  9.50  9.50  9.50  9.50  9.50  9.50  9.50  9.50  9.50  9.50  9.50  9.50  9.50
       9.50  9.50  9.50  9.50  9.50  9.50  9.50  9.50  9.50  9.50  9.50  9.50  9.50  9.50  9.50  9.50  9.50  9.50  9.50  9.50
       9.50  9.50  9.50  9.50  9.50  9.50  9.50  8.00
  28  12.00  9.50  9.50  9.50  9.50  9.50  9.50  9.50  9.50  9.50  9.50  9.50  9.50  9.50  9.50  9.50  9.50  9.50  9.50  9.50
       9.50  9.50  9.50  9.50  9.50  9.50  9.50  9.50  9.50  9.50  9.50  9.50  9.50  9.50  9.50  9.50  9.50  9.50  9.50  9.50
       9.50  9.50  9.50  9.50  9.50  9.50  9.50  9.50  9.50  9.50  9.50  9.50  9.50  9.50  9.50  9.50  9.50  9.50  9.50  9.50
       9.50  9.50  9.50  9.50  9.50  9.50  9.50  9.50  9.50  9.50  9.50  9.50  9.50  9.50  9.50  9.50  9.50  9.50  9.50  9.50
       9.50  9.50  9.50  9.50  9.50  9.50  9.50  9.50  9.50  9.50  9.50  9.50  9.50  9.50  9.50  9.50  9.50  9.50  9.50  9.50
       9.50  9.50  9.50  9.50  9.50  9.50  9.50  8.00
  29  12.00  9.50  9.50  9.50  9.50  9.50  9.50  9.50  9.50  9.50  9.50  9.50  9.50  9.50  9.50  9.50  9.50  9.50  9.50  9.50
       9.50  9.50  9.50  9.50  9.50  9.50  9.50  9.50  9.50  9.50  9.50  9.50  9.50  9.50  9.50  9.50  9.50  9.50  9.50  9.50
       9.50  9.50  9.50  9.50  9.50  9.50  9.50  9.50  9.50  9.50  9.50  9.50  9.50  9.50  9.50  9.50  9.50  9.50  9.50  9.50
       9.50  9.50  9.50  9.50  9.50  9.50  9.50  9.50  9.50  9.50  9.50  9.50  9.50  9.50  9.50  9.50  9.50  9.50  9.50  9.50
       9.50  9.50  9.50  9.50  9.50  9.50  9.50  9.50  9.50  9.50  9.50  9.50  9.50  9.50  9.50  9.50  9.50  9.50  9.50  9.50
       9.50  9.50  9.50  9.50  9.50  9.50  9.50  8.00
  30  12.00  9.50  9.50  9.50  9.50  9.50  9.50  9.50  9.50  9.50  9.50  9.50  9.50  9.50  9.50  9.50  9.50  9.50  9.50  9.50
       9.50  9.50  9.50  9.50  9.50  9.50  9.50  9.50  9.50  9.50  9.50  9.50  9.50  9.50  9.50  9.50  9.50  9.50  9.50  9.50
       9.50  9.50  9.50  9.50  9.50  9.50  9.50  9.50  9.50  9.50  9.50  9.50  9.50  9.50  9.50  9.50  9.50  9.50  9.50  9.50
       9.50  9.50  9.50  9.50  9.50  9.50  9.50  9.50  9.50  9.50  9.50  9.50  9.50  9.50  9.50  9.50  9.50  9.50  9.50  9.50
       9.50  9.50  9.50  9.50  9.50  9.50  9.50  9.50  9.50  9.50  9.50  9.50  9.50  9.50  9.50  9.50  9.50  9.50  9.50  9.50
       9.50  9.50  9.50  9.50  9.50  9.50  9.50  8.00
  31  12.00  9.50  9.50  9.50  9.50  9.50  9.50  9.50  9.50  9.50  9.50  9.50  9.50  9.50  9.50  9.50  9.50  9.50  9.50  9.50
       9.50  9.50  9.50  9.50  9.50  9.50  9.50  9.50  9.50  9.50  9.50  9.50  9.50  9.50  9.50  9.50  9.50  9.50  9.50  9.50
       9.50  9.50  9.50  9.50  9.50  9.50  9.50  9.50  9.50  9.50  9.50  9.50  9.50  9.50  9.50  9.50  9.50  9.50  9.50  9.50
       9.50  9.50  9.50  9.50  9.50  9.50  9.50  9.50  9.50  9.50  9.50  9.50  9.50  9.50  9.50  9.50  9.50  9.50  9.50  9.50
       9.50  9.50  9.50  9.50  9.50  9.50  9.50  9.50  9.50  9.50  9.50  9.50  9.50  9.50  9.50  9.50  9.50  9.50  9.50  9.50
       9.50  9.50  9.50  9.50  9.50  9.50  9.50  8.00
  32  12.00  9.50  9.50  9.50  9.50  9.50  9.50  9.50  9.50  9.50  9.50  9.50  9.50  9.50  9.50  9.50  9.50  9.50  9.50  9.50
       9.50  9.50  9.50  9.50  9.50  9.50  9.50  9.50  9.50  9.50  9.50  9.50  9.50  9.50  9.50  9.50  9.50  9.50  9.50  9.50
       9.50  9.50  9.50  9.50  9.50  9.50  9.50  9.50  9.50  9.50  9.50  9.50  9.50  9.50  9.50  9.50  9.50  9.50  9.50  9.50
       9.50  9.50  9.50  9.50  9.50  9.50  9.50  9.50  9.50  9.50  9.50  9.50  9.50  9.50  9.50  9.50  9.50  9.50  9.50  9.50
       9.50  9.50  9.50  9.50  9.50  9.50  9.50  9.50  9.50  9.50  9.50  9.50  9.50  9.50  9.50  9.50  9.50  9.50  9.50  9.50
       9.50  9.50  9.50  9.50  9.50  9.50  9.50  8.00
  33  12.00  9.50  9.50  9.50  9.50  9.50  9.50  9.50  9.50  9.50  9.50  9.50  9.50  9.50  9.50  9.50  9.50  9.50  9.50  9.50
       9.50  9.50  9.50  9.50  9.50  9.50  9.50  9.50  9.50  9.50  9.50  9.50  9.50  9.50  9.50  9.50  9.50  9.50  9.50  9.50
       9.50  9.50  9.50  9.50  9.50  9.50  9.50  9.50  9.50  9.50  9.50  9.50  9.50  9.50  9.50  9.50  9.50  9.50  9.50  9.50
       9.50  9.50  9.50  9.50  9.50  9.50  9.50  9.50  9.50  9.50  9.50  9.50  9.50  9.50  9.50  9.50  9.50  9.50  9.50  9.50
       9.50  9.50  9.50  9.50  9.50  9.50  9.50  9.50  9.50  9.50  9.50  9.50  9.50  9.50  9.50  9.50  9.50  9.50  9.50  9.50
       9.50  9.50  9.50  9.50  9.50  9.50  9.50  8.00
  34  12.00  9.50  9.50  9.50  9.50  9.50  9.50  9.50  9.50  9.50  9.50  9.50  9.50  9.50  9.50  9.50  9.50  9.50  9.50  9.50
       9.50  9.50  9.50  9.50  9.50  9.50  9.50  9.50  9.50  9.50  9.50  9.50  9.50  9.50  9.50  9.50  9.50  9.50  9.50  9.50
       9.50  9.50  9.50  9.50  9.50  9.50  9.50  9.50  9.50  9.50  9.50  9.50  9.50  9.50  9.50  9.50  9.50  9.50  9.50  9.50
       9.50  9.50  9.50  9.50  9.50  9.50  9.50  9.50  9.50  9.50  9.50  9.50  9.50  9.50  9.50  9.50  9.50  9.50  9.50  9.50
       9.50  9.50  9.50  9.50  9.50  9.50  9.50  9.50  9.50  9.50  9.50  9.50  9.50  9.50  9.50  9.50  9.50  9.50  9.50  9.50
       9.50  9.50  9.50  9.50  9.50  9.50  9.50  8.00
  35  12.00  9.50  9.50  9.50  9.50  9.50  9.50  9.50  9.50  9.50  9.50  9.50  9.50  9.50  9.50  9.50  9.50  9.50  9.50  9.50
       9.50  9.50  9.50  9.50  9.50  9.50  9.50  9.50  9.50  9.50  9.50  9.50  9.50  9.50  9.50  9.50  9.50  9.50  9.50  9.50
       9.50  9.50  9.50  9.50  9.50  9.50  9.50  9.50  9.50  9.50  9.50  9.50  9.50  9.50  9.50  9.50  9.50  9.50  9.50  9.50
       9.50  9.50  9.50  9.50  9.50  9.50  9.50  9.50  9.50  9.50  9.50  9.50  9.50  9.50  9.50  9.50  9.50  9.50  9.50  9.50
       9.50  9.50  9.50  9.50  9.50  9.50  9.50  9.50  9.50  9.50  9.50  9.50  9.50  9.50  9.50  9.50  9.50  9.50  9.50  9.50
       9.50  9.50  9.50  9.50  9.50  9.50  9.50  8.00
  36  12.00  9.50  9.50  9.50  9.50  9.50  9.50  9.50  9.50  9.50  9.50  9.50  9.50  9.50  9.50  9.50  9.50  9.50  9.50  9.50
       9.50  9.50  9.50  9.50  9.50  9.50  9.50  9.50  9.50  9.50  9.50  9.50  9.50  9.50  9.50  9.50  9.50  9.50  9.50  9.50
       9.50  9.50  9.50  9.50  9.50  9.50  9.50  9.50  9.50  9.50  9.50  9.50  9.50  9.50  9.50  9.50  9.50  9.50  9.50  9.50
       9.50  9.50  9.50  9.50  9.50  9.50  9.50  9.50  9.50  9.50  9.50  9.50  9.50  9.50  9.50  9.50  9.50  9.50  9.50  9.50
       9.50  9.50  9.50  9.50  9.50  9.50  9.50  9.50  9.50  9.50  9.50  9.50  9.50  9.50  9.50  9.50  9.50  9.50  9.50  9.50
       9.50  9.50  9.50  9.50  9.50  9.50  9.50  8.00
  37  12.00  9.50  9.50  9.50  9.50  9.50  9.50  9.50  9.50  9.50  9.50  9.50  9.50  9.50  9.50  9.50  9.50  9.50  9.50  9.50
       9.50  9.50  9.50  9.50  9.50  9.50  9.50  9.50  9.50  9.50  9.50  9.50  9.50  9.50  9.50  9.50  9.50  9.50  9.50  9.50
       9.50  9.50  9.50  9.50  9.50  9.50  9.50  9.50  9.50  9.50  9.50  9.50  9.50  9.50  9.50  9.50  9.50  9.50  9.50  9.50
       9.50  9.50  9.50  9.50  9.50  9.50  9.50  9.50  9.50  9.50  9.50  9.50  9.50  9.50  9.50  9.50  9.50  9.50  9.50  9.50
       9.50  9.50  9.50  9.50  9.50  9.50  9.50  9.50  9.50  9.50  9.50  9.50  9.50  9.50  9.50  9.50  9.50  9.50  9.50  9.50
       9.50  9.50  9.50  9.50  9.50  9.50  9.50  8.00
  38  12.00  9.50  9.50  9.50  9.50  9.50  9.50  9.50  9.50  9.50  9.50  9.50  9.50  9.50  9.50  9.50  9.50  9.50  9.50  9.50
       9.50  9.50  9.50  9.50  9.50  9.50  9.50  9.50  9.50  9.50  9.50  9.50  9.50  9.50  9.50  9.50  9.50  9.50  9.50  9.50
       9.50  9.50  9.50  9.50  9.50  9.50  9.50  9.50  9.50  9.50  9.50  9.50  9.50  9.50  9.50  9.50  9.50  9.50  9.50  9.50
       9.50  9.50  9.50  9.50  9.50  9.50  9.50  9.50  9.50  9.50  9.50  9.50  9.50  9.50  9.50  9.50  9.50  9.50  9.50  9.50
       9.50  9.50  9.50  9.50  9.50  9.50  9.50  9.50  9.50  9.50  9.50  9.50  9.50  9.50  9.50  9.50  9.50  9.50  9.50  9.50
       9.50  9.50  9.50  9.50  9.50  9.50  9.50  8.00
  39  12.00  9.50  9.50  9.50  9.50  9.50  9.50  9.50  9.50  9.50  9.50  9.50  9.50  9.50  9.50  9.50  9.50  9.50  9.50  9.50
       9.50  9.50  9.50  9.50  9.50  9.50  9.50  9.50  9.50  9.50  9.50  9.50  9.50  9.50  9.50  9.50  9.50  9.50  9.50  9.50
       9.50  9.50  9.50  9.50  9.50  9.50  9.50  9.50  9.50  9.50  9.50  9.50  9.50  9.50  9.50  9.50  9.50  9.50  9.50  9.50
       9.50  9.50  9.50  9.50  9.50  9.50  9.50  9.50  9.50  9.50  9.50  9.50  9.50  9.50  9.50  9.50  9.50  9.50  9.50  9.50
       9.50  9.50  9.50  9.50  9.50  9.50  9.50  9.50  9.50  9.50  9.50  9.50  9.50  9.50  9.50  9.50  9.50  9.50  9.50  9.50
       9.50  9.50  9.50  9.50  9.50  9.50  9.50  8.00
  40  12.00  9.50  9.50  9.50  9.50  9.50  9.50  9.50  9.50  9.50  9.50  9.50  9.50  9.50  9.50  9.50  9.50  9.50  9.50  9.50
       9.50  9.50  9.50  9.50  9.50  9.50  9.50  9.50  9.50  9.50  9.50  9.50  9.50  9.50  9.50  9.50  9.50  9.50  9.50  9.50
       9.50  9.50  9.50  9.50  9.50  9.50  9.50  9.50  9.50  9.50  9.50  9.50  9.50  9.50  9.50  9.50  9.50  9.50  9.50  9.50
       9.50  9.50  9.50  9.50  9.50  9.50  9.50  9.50  9.50  9.50  9.50  9.50  9.50  9.50  9.50  9.50  9.50  9.50  9.50  9.50
       9.50  9.50  9.50  9.50  9.50  9.50  9.50  9.50  9.50  9.50  9.50  9.50  9.50  9.50  9.50  9.50  9.50  9.50  9.50  9.50
       9.50  9.50  9.50  9.50  9.50  9.50  9.50  8.00
  41  12.00  9.50  9.50  9.50  9.50  9.50  9.50  9.50  9.50  9.50  9.50  9.50  9.50  9.50  9.50  9.50  9.50  9.50  9.50  9.50
       9.50  9.50  9.50  9.50  9.50  9.50  9.50  9.50  9.50  9.50  9.50  9.50  9.50  9.50  9.50  9.50  9.50  9.50  9.50  9.50
       9.50  9.50  9.50  9.50  9.50  9.50  9.50  9.50  9.50  9.50  9.50  9.50  9.50  9.50  9.50  9.50  9.50  9.50  9.50  9.50
       9.50  9.50  9.50  9.50  9.50  9.50  9.50  9.50  9.50  9.50  9.50  9.50  9.50  9.50  9.50  9.50  9.50  9.50  9.50  9.50
       9.50  9.50  9.50  9.50  9.50  9.50  9.50  9.50  9.50  9.50  9.50  9.50  9.50  9.50  9.50  9.50  9.50  9.50  9.50  9.50
       9.50  9.50  9.50  9.50  9.50  9.50  9.50  8.00
  42  12.00  9.50  9.50  9.50  9.50  9.50  9.50  9.50  9.50  9.50  9.50  9.50  9.50  9.50  9.50  9.50  9.50  9.50  9.50  9.50
       9.50  9.50  9.50  9.50  9.50  9.50  9.50  9.50  9.50  9.50  9.50  9.50  9.50  9.50  9.50  9.50  9.50  9.50  9.50  9.50
       9.50  9.50  9.50  9.50  9.50  9.50  9.50  9.50  9.50  9.50  9.50  9.50  9.50  9.50  9.50  9.50  9.50  9.50  9.50  9.50
       9.50  9.50  9.50  9.50  9.50  9.50  9.50  9.50  9.50  9.50  9.50  9.50  9.50  9.50  9.50  9.50  9.50  9.50  9.50  9.50
       9.50  9.50  9.50  9.50  9.50  9.50  9.50  9.50  9.50  9.50  9.50  9.50  9.50  9.50  9.50  9.50  9.50  9.50  9.50  9.50
       9.50  9.50  9.50  9.50  9.50  9.50  9.50  8.00
  43  12.00  9.50  9.50  9.50  9.50  9.50  9.50  9.50  9.50  9.50  9.50  9.50  9.50  9.50  9.50  9.50  9.50  9.50  9.50  9.50
       9.50  9.50  9.50  9.50  9.50  9.50  9.50  9.50  9.50  9.50  9.50  9.50  9.50  9.50  9.50  9.50  9.50  9.50  9.50  9.50
       9.50  9.50  9.50  9.50  9.50  9.50  9.50  9.50  9.50  9.50  9.50  9.50  9.50  9.50  9.50  9.50  9.50  9.50  9.50  9.50
       9.50  9.50  9.50  9.50  9.50  9.50  9.50  9.50  9.50  9.50  9.50  9.50  9.50  9.50  9.50  9.50  9.50  9.50  9.50  9.50
       9.50  9.50  9.50  9.50  9.50  9.50  9.50  9.50  9.50  9.50  9.50  9.50  9.50  9.50  9.50  9.50  9.50  9.50  9.50  9.50
       9.50  9.50  9.50  9.50  9.50  9.50  9.50  8.00
  44  12.00  9.50  9.50  9.50  9.50  9.50  9.50  9.50  9.50  9.50  9.50  9.50  9.50  9.50  9.50  9.50  9.50  9.50  9.50  9.50
       9.50  9.50  9.50  9.50  9.50  9.50  9.50  9.50  9.50  9.50  9.50  9.50  9.50  9.50  9.50  9.50  9.50  9.50  9.50  9.50
       9.50  9.50  9.50  9.50  9.50  9.50  9.50  9.50  9.50  9.50  9.50  9.50  9.50  9.50  9.50  9.50  9.50  9.50  9.50  9.50
       9.50  9.50  9.50  9.50  9.50  9.50  9.50  9.50  9.50  9.50  9.50  9.50  9.50  9.50  9.50  9.50  9.50  9.50  9.50  9.50
       9.50  9.50  9.50  9.50  9.50  9.50  9.50  9.50  9.50  9.50  9.50  9.50  9.50  9.50  9.50  9.50  9.50  9.50  9.50  9.50
       9.50  9.50  9.50  9.50  9.50  9.50  9.50  8.00
  45  12.00  9.50  9.50  9.50  9.50  9.50  9.50  9.50  9.50  9.50  9.50  9.50  9.50  9.50  9.50  9.50  9.50  9.50  9.50  9.50
       9.50  9.50  9.50  9.50  9.50  9.50  9.50  9.50  9.50  9.50  9.50  9.50  9.50  9.50  9.50  9.50  9.50  9.50  9.50  9.50
       9.50  9.50  9.50  9.50  9.50  9.50  9.50  9.50  9.50  9.50  9.50  9.50  9.50  9.50  9.50  9.50  9.50  9.50  9.50  9.50
       9.50  9.50  9.50  9.50  9.50  9.50  9.50  9.50  9.50  9.50  9.50  9.50  9.50  9.50  9.50  9.50  9.50  9.50  9.50  9.50
       9.50  9.50  9.50  9.50  9.50  9.50  9.50  9.50  9.50  9.50  9.50  9.50  9.50  9.50  9.50  9.50  9.50  9.50  9.50  9.50
       9.50  9.50  9.50  9.50  9.50  9.50  9.50  8.00
  46  12.00  9.50  9.50  9.50  9.50  9.50  9.50  9.50  9.50  9.50  9.50  9.50  9.50  9.50  9.50  9.50  9.50  9.50  9.50  9.50
       9.50  9.50  9.50  9.50  9.50  9.50  9.50  9.50  9.50  9.50  9.50  9.50  9.50  9.50  9.50  9.50  9.50  9.50  9.50  9.50
       9.50  9.50  9.50  9.50  9.50  9.50  9.50  9.50  9.50  9.50  9.50  9.50  9.50  9.50  9.50  9.50  9.50  9.50  9.50  9.50
       9.50  9.50  9.50  9.50  9.50  9.50  9.50  9.50  9.50  9.50  9.50  9.50  9.50  9.50  9.50  9.50  9.50  9.50  9.50  9.50
       9.50  9.50  9.50  9.50  9.50  9.50  9.50  9.50  9.50  9.50  9.50  9.50  9.50  9.50  9.50  9.50  9.50  9.50  9.50  9.50
       9.50  9.50  9.50  9.50  9.50  9.50  9.50  8.00
  47  12.00  9.50  9.50  9.50  9.50  9.50  9.50  9.50  9.50  9.50  9.50  9.50  9.50  9.50  9.50  9.50  9.50  9.50  9.50  9.50
       9.50  9.50  9.50  9.50  9.50  9.50  9.50  9.50  9.50  9.50  9.50  9.50  9.50  9.50  9.50  9.50  9.50  9.50  9.50  9.50
       9.50  9.50  9.50  9.50  9.50  9.50  9.50  9.50  9.50  9.50  9.50  9.50  9.50  9.50  9.50  9.50  9.50  9.50  9.50  9.50
       9.50  9.50  9.50  9.50  9.50  9.50  9.50  9.50  9.50  9.50  9.50  9.50  9.50  9.50  9.50  9.50  9.50  9.50  9.50  9.50
       9.50  9.50  9.50  9.50  9.50  9.50  9.50  9.50  9.50  9.50  9.50  9.50  9.50  9.50  9.50  9.50  9.50  9.50  9.50  9.50
       9.50  9.50  9.50  9.50  9.50  9.50  9.50  8.00
  48  12.00  9.50  9.50  9.50  9.50  9.50  9.50  9.50  9.50  9.50  9.50  9.50  9.50  9.50  9.50  9.50  9.50  9.50  9.50  9.50
       9.50  9.50  9.50  9.50  9.50  9.50  9.50  9.50  9.50  9.50  9.50  9.50  9.50  9.50  9.50  9.50  9.50  9.50  9.50  9.50
       9.50  9.50  9.50  9.50  9.50  9.50  9.50  9.50  9.50  9.50  9.50  9.50  9.50  9.50  9.50  9.50  9.50  9.50  9.50  9.50
       9.50  9.50  9.50  9.50  9.50  9.50  9.50  9.50  9.50  9.50  9.50  9.50  9.50  9.50  9.50  9.50  9.50  9.50  9.50  9.50
       9.50  9.50  9.50  9.50  9.50  9.50  9.50  9.50  9.50  9.50  9.50  9.50  9.50  9.50  9.50  9.50  9.50  9.50  9.50  9.50
       9.50  9.50  9.50  9.50  9.50  9.50  9.50  8.00
  49  12.00  9.50  9.50  9.50  9.50  9.50  9.50  9.50  9.50  9.50  9.50  9.50  9.50  9.50  9.50  9.50  9.50  9.50  9.50  9.50
       9.50  9.50  9.50  9.50  9.50  9.50  9.50  9.50  9.50  9.50  9.50  9.50  9.50  9.50  9.50  9.50  9.50  9.50  9.50  9.50
       9.50  9.50  9.50  9.50  9.50  9.50  9.50  9.50  9.50  9.50  9.50  9.50  9.50  9.50  9.50  9.50  9.50  9.50  9.50  9.50
       9.50  9.50  9.50  9.50  9.50  9.50  9.50  9.50  9.50  9.50  9.50  9.50  9.50  9.50  9.50  9.50  9.50  9.50  9.50  9.50
[...]
 -----------------------------------------------------------
 IRCHC REACHES    54 TO    53    54 TO    55
 -----------------------------------------------------------

 -----------------------------------------------------------
 RCHGRP =    55
 IRGNUM =    55
               -----------------CONNECTIONS-----------------
                            1              2
 -----------------------------------------------------------
 IRCHC REACHES    55 TO    54    55 TO    56
 -----------------------------------------------------------

 -----------------------------------------------------------
 RCHGRP =    56
 IRGNUM =    56
               -----------------CONNECTIONS-----------------
                            1              2
 -----------------------------------------------------------
 IRCHC REACHES    56 TO    55    56 TO    57
 -----------------------------------------------------------

 -----------------------------------------------------------
 RCHGRP =    57
 IRGNUM =    57
               -----------------CONNECTIONS-----------------
                            1              2
 -----------------------------------------------------------
 IRCHC REACHES    57 TO    56    57 TO    58
 -----------------------------------------------------------

 -----------------------------------------------------------
 RCHGRP =    58
 IRGNUM =    58
               -----------------CONNECTIONS-----------------
                            1              2
 -----------------------------------------------------------
 IRCHC REACHES    58 TO    57    58 TO    59
 -----------------------------------------------------------

 -----------------------------------------------------------
 RCHGRP =    59
 IRGNUM =    59
               -----------------CONNECTIONS-----------------
                            1              2
 -----------------------------------------------------------
 IRCHC REACHES    59 TO    58    59 TO    60
 -----------------------------------------------------------

 -----------------------------------------------------------
 RCHGRP =    60
 IRGNUM =    60
               -----------------CONNECTIONS-----------------
                            1              2
 -----------------------------------------------------------
 IRCHC REACHES    60 TO    59    60 TO    61
 -----------------------------------------------------------

 -----------------------------------------------------------
 RCHGRP =    61
 IRGNUM =    61
               -----------------CONNECTIONS-----------------
                            1              2
 -----------------------------------------------------------
 IRCHC REACHES    61 TO    60    61 TO    62
 -----------------------------------------------------------

 -----------------------------------------------------------
 RCHGRP =    62
 IRGNUM =    62
               -----------------CONNECTIONS-----------------
                            1              2
 -----------------------------------------------------------
 IRCHC REACHES    62 TO    61    62 TO    63
 -----------------------------------------------------------

 -----------------------------------------------------------
 RCHGRP =    63
 IRGNUM =    63
               -----------------CONNECTIONS-----------------
                            1              2
 -----------------------------------------------------------
 IRCHC REACHES    63 TO    62    63 TO    64
 -----------------------------------------------------------

 -----------------------------------------------------------
 RCHGRP =    64
 IRGNUM =    64
               -----------------CONNECTIONS-----------------
                            1              2
 -----------------------------------------------------------
 IRCHC REACHES    64 TO    63    64 TO    65
 -----------------------------------------------------------

 -----------------------------------------------------------
 RCHGRP =    65
 IRGNUM =    65
               -----------------CONNECTIONS-----------------
                            1              2
 -----------------------------------------------------------
 IRCHC REACHES    65 TO    64    65 TO    66
 -----------------------------------------------------------

 -----------------------------------------------------------
 RCHGRP =    66
 IRGNUM =    66
               -----------------CONNECTIONS-----------------
                            1              2
 -----------------------------------------------------------
 IRCHC REACHES    66 TO    65    66 TO    67
 -----------------------------------------------------------

 -----------------------------------------------------------
 RCHGRP =    67
 IRGNUM =    67
               -----------------CONNECTIONS-----------------
                            1              2
 -----------------------------------------------------------
 IRCHC REACHES    67 TO    66    67 TO    68
 -----------------------------------------------------------

 -----------------------------------------------------------
 RCHGRP =    68
 IRGNUM =    68
               -----------------CONNECTIONS-----------------
                            1              2
 -----------------------------------------------------------
 IRCHC REACHES    68 TO    67    68 TO    69
 -----------------------------------------------------------

 -----------------------------------------------------------
 RCHGRP =    69
 IRGNUM =    69
               -----------------CONNECTIONS-----------------
                            1              2
 -----------------------------------------------------------
 IRCHC REACHES    69 TO    68    69 TO    70
 -----------------------------------------------------------

 -----------------------------------------------------------
 RCHGRP =    70
 IRGNUM =    70
               -----------------CONNECTIONS-----------------
                            1              2
 -----------------------------------------------------------
 IRCHC REACHES    70 TO    69    70 TO    71
 -----------------------------------------------------------

 -----------------------------------------------------------
 RCHGRP =    71
 IRGNUM =    71
               -----------------CONNECTIONS-----------------
                            1              2
 -----------------------------------------------------------
 IRCHC REACHES    71 TO    70    71 TO    72
 -----------------------------------------------------------

 -----------------------------------------------------------
 RCHGRP =    72
 IRGNUM =    72
               -----------------CONNECTIONS-----------------
                            1              2
 -----------------------------------------------------------
 IRCHC REACHES    72 TO    71    72 TO    73
 -----------------------------------------------------------

 -----------------------------------------------------------
 RCHGRP =    73
 IRGNUM =    73
               -----------------CONNECTIONS-----------------
                            1              2
 -----------------------------------------------------------
 IRCHC REACHES    73 TO    72    73 TO    74
 -----------------------------------------------------------

 -----------------------------------------------------------
 RCHGRP =    74
 IRGNUM =    74
               -----------------CONNECTIONS-----------------
                            1              2
 -----------------------------------------------------------
 IRCHC REACHES    74 TO    73    74 TO    75
 -----------------------------------------------------------

 -----------------------------------------------------------
 RCHGRP =    75
 IRGNUM =    75
               -----------------CONNECTIONS-----------------
                            1              2
 -----------------------------------------------------------
 IRCHC REACHES    75 TO    74    75 TO    76
 -----------------------------------------------------------

 -----------------------------------------------------------
 RCHGRP =    76
 IRGNUM =    76
               -----------------CONNECTIONS-----------------
                            1              2
 -----------------------------------------------------------
 IRCHC REACHES    76 TO    75    76 TO    77
 -----------------------------------------------------------

 -----------------------------------------------------------
 RCHGRP =    77
 IRGNUM =    77
               -----------------CONNECTIONS-----------------
                            1              2
 -----------------------------------------------------------
 IRCHC REACHES    77 TO    76    77 TO    78
 -----------------------------------------------------------

 -----------------------------------------------------------
 RCHGRP =    78
 IRGNUM =    78
               -----------------CONNECTIONS-----------------
                            1              2
 -----------------------------------------------------------
 IRCHC REACHES    78 TO    77    78 TO    79
 -----------------------------------------------------------

 -----------------------------------------------------------
 RCHGRP =    79
 IRGNUM =    79
               -----------------CONNECTIONS-----------------
                            1              2
 -----------------------------------------------------------
 IRCHC REACHES    79 TO    78    79 TO    80
 -----------------------------------------------------------

 -----------------------------------------------------------
 RCHGRP =    80
 IRGNUM =    80
               -----------------CONNECTIONS-----------------
                            1              2
 -----------------------------------------------------------
 IRCHC REACHES    80 TO    79    80 TO    81
 -----------------------------------------------------------

 -----------------------------------------------------------
 RCHGRP =    81
 IRGNUM =    81
               -----------------CONNECTIONS-----------------
                            1              2
 -----------------------------------------------------------
 IRCHC REACHES    81 TO    80    81 TO    82
 -----------------------------------------------------------

 -----------------------------------------------------------
 RCHGRP =    82
 IRGNUM =    82
               -----------------CONNECTIONS-----------------
                            1              2
 -----------------------------------------------------------
 IRCHC REACHES    82 TO    81    82 TO    83
 -----------------------------------------------------------

 -----------------------------------------------------------
 RCHGRP =    83
 IRGNUM =    83
               -----------------CONNECTIONS-----------------
                            1              2
 -----------------------------------------------------------
 IRCHC REACHES    83 TO    82    83 TO    84
 -----------------------------------------------------------

 -----------------------------------------------------------
 RCHGRP =    84
 IRGNUM =    84
               -----------------CONNECTIONS-----------------
                            1              2
 -----------------------------------------------------------
 IRCHC REACHES    84 TO    83    84 TO    85
 -----------------------------------------------------------

 -----------------------------------------------------------
 RCHGRP =    85
 IRGNUM =    85
               -----------------CONNECTIONS-----------------
                            1              2
 -----------------------------------------------------------
 IRCHC REACHES    85 TO    84    85 TO    86
 -----------------------------------------------------------

 -----------------------------------------------------------
 RCHGRP =    86
 IRGNUM =    86
               -----------------CONNECTIONS-----------------
                            1              2
 -----------------------------------------------------------
 IRCHC REACHES    86 TO    85    86 TO    87
 -----------------------------------------------------------

 -----------------------------------------------------------
 RCHGRP =    87
 IRGNUM =    87
               -----------------CONNECTIONS-----------------
                            1              2
 -----------------------------------------------------------
 IRCHC REACHES    87 TO    86    87 TO    88
 -----------------------------------------------------------

 -----------------------------------------------------------
 RCHGRP =    88
 IRGNUM =    88
               -----------------CONNECTIONS-----------------
                            1              2
 -----------------------------------------------------------
 IRCHC REACHES    88 TO    87    88 TO    89
 -----------------------------------------------------------

 -----------------------------------------------------------
 RCHGRP =    89
 IRGNUM =    89
               -----------------CONNECTIONS-----------------
                            1              2
 -----------------------------------------------------------
 IRCHC REACHES    89 TO    88    89 TO    90
 -----------------------------------------------------------

 -----------------------------------------------------------
 RCHGRP =    90
 IRGNUM =    90
               -----------------CONNECTIONS-----------------
                            1              2
 -----------------------------------------------------------
 IRCHC REACHES    90 TO    89    90 TO    91
 -----------------------------------------------------------

 -----------------------------------------------------------
 RCHGRP =    91
 IRGNUM =    91
               -----------------CONNECTIONS-----------------
                            1              2
 -----------------------------------------------------------
 IRCHC REACHES    91 TO    90    91 TO    92
 -----------------------------------------------------------

 -----------------------------------------------------------
 RCHGRP =    92
 IRGNUM =    92
               -----------------CONNECTIONS-----------------
                            1              2
 -----------------------------------------------------------
 IRCHC REACHES    92 TO    91    92 TO    93
 -----------------------------------------------------------

 -----------------------------------------------------------
 RCHGRP =    93
 IRGNUM =    93
               -----------------CONNECTIONS-----------------
                            1              2
 -----------------------------------------------------------
 IRCHC REACHES    93 TO    92    93 TO    94
 -----------------------------------------------------------

 -----------------------------------------------------------
 RCHGRP =    94
 IRGNUM =    94
               -----------------CONNECTIONS-----------------
                            1              2
 -----------------------------------------------------------
 IRCHC REACHES    94 TO    93    94 TO    95
 -----------------------------------------------------------

 -----------------------------------------------------------
 RCHGRP =    95
 IRGNUM =    95
               -----------------CONNECTIONS-----------------
                            1              2
 -----------------------------------------------------------
 IRCHC REACHES    95 TO    94    95 TO    96
 -----------------------------------------------------------

 -----------------------------------------------------------
 RCHGRP =    96
 IRGNUM =    96
               -----------------CONNECTIONS-----------------
                            1              2
 -----------------------------------------------------------
 IRCHC REACHES    96 TO    95    96 TO    97
 -----------------------------------------------------------

 -----------------------------------------------------------
 RCHGRP =    97
 IRGNUM =    97
               -----------------CONNECTIONS-----------------
                            1              2
 -----------------------------------------------------------
 IRCHC REACHES    97 TO    96    97 TO    98
 -----------------------------------------------------------

 -----------------------------------------------------------
 RCHGRP =    98
 IRGNUM =    98
               -----------------CONNECTIONS-----------------
                            1              2
 -----------------------------------------------------------
 IRCHC REACHES    98 TO    97    98 TO    99
 -----------------------------------------------------------

 -----------------------------------------------------------
 RCHGRP =    99
 IRGNUM =    99
               -----------------CONNECTIONS-----------------
                            1              2
 -----------------------------------------------------------
 IRCHC REACHES    99 TO    98    99 TO   100
 -----------------------------------------------------------

 -----------------------------------------------------------
 RCHGRP =   100
 IRGNUM =   100
               -----------------CONNECTIONS-----------------
                            1              2
 -----------------------------------------------------------
 IRCHC REACHES   100 TO    99   100 TO   101
 -----------------------------------------------------------

 -----------------------------------------------------------
 RCHGRP =   101
 IRGNUM =   101
               -----------------CONNECTIONS-----------------
                            1              2
 -----------------------------------------------------------
 IRCHC REACHES   101 TO   100   101 TO   102
 -----------------------------------------------------------

 -----------------------------------------------------------
 RCHGRP =   102
 IRGNUM =   102
               -----------------CONNECTIONS-----------------
                            1              2
 -----------------------------------------------------------
 IRCHC REACHES   102 TO   101   102 TO   103
 -----------------------------------------------------------

 -----------------------------------------------------------
 RCHGRP =   103
 IRGNUM =   103
               -----------------CONNECTIONS-----------------
                            1              2
 -----------------------------------------------------------
 IRCHC REACHES   103 TO   102   103 TO   104
 -----------------------------------------------------------

 -----------------------------------------------------------
 RCHGRP =   104
 IRGNUM =   104
               -----------------CONNECTIONS-----------------
                            1              2
 -----------------------------------------------------------
 IRCHC REACHES   104 TO   103   104 TO   105
 -----------------------------------------------------------

 -----------------------------------------------------------
 RCHGRP =   105
 IRGNUM =   105
               -----------------CONNECTIONS-----------------
                            1              2
 -----------------------------------------------------------
 IRCHC REACHES   105 TO   104   105 TO   106
 -----------------------------------------------------------

 -----------------------------------------------------------
 RCHGRP =   106
 IRGNUM =   106
               -----------------CONNECTIONS-----------------
                            1              2
 -----------------------------------------------------------
 IRCHC REACHES   106 TO   105   106 TO   107
 -----------------------------------------------------------

 -----------------------------------------------------------
 RCHGRP =   107
 IRGNUM =   107
               -----------------CONNECTIONS-----------------
                            1              2
 -----------------------------------------------------------
 IRCHC REACHES   107 TO   106   107 TO   108
 -----------------------------------------------------------

 -----------------------------------------------------------
 RCHGRP =   108
 IRGNUM =   108
               -----------------CONNECTIONS-----------------
                            1
 -----------------------------------------------------------
 IRCHC REACHES   108 TO   107
 -----------------------------------------------------------
 
 SOLVING FOR HEAD 
